@<TRIPOS>MOLECULE
51263
 63 65 0 0 0
SMALL
GASTEIGER

@<TRIPOS>ATOM
      1 O         121.8225  151.8419  148.7404 O.3     1  UNL111     -0.4622
      2 O         123.6562  150.7535  145.1520 O.2     1  UNL111     -0.3820
      3 O         114.9590  153.1946  148.0795 O.2     1  UNL111     -0.3106
      4 N         118.7929  152.8597  145.6809 N.4     1  UNL111      0.4293
      5 N         123.1159  152.8162  146.0238 N.am    1  UNL111     -0.2801
      6 N         115.1023  153.7652  145.8366 N.am    1  UNL111     -0.1688
      7 N         114.2126  153.8621  144.8089 N.pl3   1  UNL111     -0.0914
      8 N         113.1316  153.3534  146.5986 N.am    1  UNL111     -0.1764
      9 N         113.0474  153.6180  145.2562 N.pl3   1  UNL111     -0.0938
     10 C         121.6840  152.4089  146.3505 C.3     1  UNL111      0.0441
     11 C         120.8240  153.6165  146.8462 C.3     1  UNL111     -0.0238
     12 C         120.9984  151.8971  145.0451 C.3     1  UNL111     -0.0238
     13 C         119.3547  153.2811  147.0203 C.3     1  UNL111     -0.0338
     14 C         119.5023  151.6349  145.1643 C.3     1  UNL111     -0.0338
     15 C         121.7029  151.2737  147.4331 C.3     1  UNL111      0.0267
     16 C         117.2802  152.6471  145.7275 C.3     1  UNL111     -0.0140
     17 C         123.5574  154.1194  146.3714 C.3     1  UNL111     -0.0024
     18 C         124.0168  151.8894  145.4694 C.2     1  UNL111      0.1520
     19 C         116.5136  153.9759  145.6970 C.3     1  UNL111      0.0456
     20 C         125.4672  152.3299  145.2814 C.3     1  UNL111      0.0339
     21 C         123.7303  155.0808  145.3700 C.3     1  UNL111     -0.0551
     22 C         123.8239  154.4422  147.7049 C.3     1  UNL111     -0.0551
     23 C         122.0804  150.8481  149.7288 C.3     1  UNL111     -0.0028
     24 C         126.3629  151.1896  144.8232 C.3     1  UNL111     -0.0445
     25 C         124.1579  156.3655  145.7062 C.3     1  UNL111     -0.0786
     26 C         124.2514  155.7281  148.0364 C.3     1  UNL111     -0.0786
     27 C         114.4445  153.4177  146.9983 C.2     1  UNL111      0.2956
     28 C         124.4159  156.6885  147.0384 C.3     1  UNL111     -0.0844
     29 C         111.9835  153.0074  147.3966 C.3     1  UNL111      0.0362
     30 C         111.6318  151.5364  147.2659 C.3     1  UNL111     -0.0414
     31 H         118.9752  153.6160  145.0051 H       1  UNL111      0.1340
     32 H         120.8993  154.4448  146.1284 H       1  UNL111      0.0582
     33 H         121.1893  154.0079  147.8012 H       1  UNL111      0.0582
     34 H         121.4483  150.9653  144.6922 H       1  UNL111      0.0582
     35 H         121.1628  152.6343  144.2468 H       1  UNL111      0.0582
     36 H         119.1764  152.4722  147.7359 H       1  UNL111      0.0746
     37 H         118.8087  154.1713  147.3440 H       1  UNL111      0.0746
     38 H         119.0862  151.4140  144.1751 H       1  UNL111      0.0746
     39 H         119.2682  150.8031  145.8361 H       1  UNL111      0.0746
     40 H         120.7724  150.6985  147.4185 H       1  UNL111      0.0992
     41 H         122.5210  150.5666  147.2675 H       1  UNL111      0.0992
     42 H         117.0621  152.0516  146.6209 H       1  UNL111      0.0838
     43 H         117.0086  152.0548  144.8459 H       1  UNL111      0.0838
     44 H         116.8271  154.6165  146.5268 H       1  UNL111      0.1029
     45 H         116.7048  154.5131  144.7617 H       1  UNL111      0.1029
     46 H         125.8546  152.7184  146.2287 H       1  UNL111      0.0735
     47 H         125.5031  153.1234  144.5288 H       1  UNL111      0.0735
     48 H         123.5384  154.8393  144.3281 H       1  UNL111      0.0994
     49 H         123.7151  153.6980  148.4900 H       1  UNL111      0.0994
     50 H         122.1274  151.3390  150.7043 H       1  UNL111      0.0816
     51 H         123.0406  150.3600  149.5363 H       1  UNL111      0.0816
     52 H         121.2750  150.1077  149.7452 H       1  UNL111      0.0816
     53 H         126.3573  150.3697  145.5490 H       1  UNL111      0.0319
     54 H         127.3939  151.5384  144.7086 H       1  UNL111      0.0319
     55 H         126.0294  150.7892  143.8601 H       1  UNL111      0.0319
     56 H         124.3005  157.1149  144.9308 H       1  UNL111      0.0890
     57 H         124.4669  155.9800  149.0725 H       1  UNL111      0.0890
     58 H         124.7577  157.6882  147.2989 H       1  UNL111      0.0876
     59 H         111.1422  153.6342  147.0829 H       1  UNL111      0.0881
     60 H         112.2092  153.2345  148.4441 H       1  UNL111      0.0881
     61 H         111.3962  151.2790  146.2281 H       1  UNL111      0.0362
     62 H         110.7623  151.2957  147.8852 H       1  UNL111      0.0362
     63 H         112.4670  150.9041  147.5851 H       1  UNL111      0.0362
@<TRIPOS>UNITY_ATOM_ATTR
4 1
charge 1
@<TRIPOS>BOND
     1     1    15    1
     2     1    23    1
     3     2    18    2
     4     3    27    2
     5     4    13    1
     6     4    14    1
     7     4    16    1
     8     5    10    1
     9     5    17    1
    10     5    18   am
    11     6     7   ar
    12     6    19    1
    13     6    27   ar
    14     7     9   ar
    15     8     9   ar
    16     8    27   ar
    17     8    29    1
    18    10    11    1
    19    10    12    1
    20    10    15    1
    21    11    13    1
    22    12    14    1
    23    16    19    1
    24    17    21   ar
    25    17    22   ar
    26    18    20    1
    27    20    24    1
    28    21    25   ar
    29    22    26   ar
    30    25    28   ar
    31    26    28   ar
    32    29    30    1
    33     4    31    1
    34    11    32    1
    35    11    33    1
    36    12    34    1
    37    12    35    1
    38    13    36    1
    39    13    37    1
    40    14    38    1
    41    14    39    1
    42    15    40    1
    43    15    41    1
    44    16    42    1
    45    16    43    1
    46    19    44    1
    47    19    45    1
    48    20    46    1
    49    20    47    1
    50    21    48    1
    51    22    49    1
    52    23    50    1
    53    23    51    1
    54    23    52    1
    55    24    53    1
    56    24    54    1
    57    24    55    1
    58    25    56    1
    59    26    57    1
    60    28    58    1
    61    29    59    1
    62    29    60    1
    63    30    61    1
    64    30    62    1
    65    30    63    1
@<TRIPOS>MOLECULE
166177214
 66 68 0 0 0
SMALL
GASTEIGER

@<TRIPOS>ATOM
      1 O         117.8344  152.3012  149.1063 O.3     1  UNL111     -0.4622
      2 O         116.0188  150.7731  145.8190 O.2     1  UNL111     -0.3818
      3 O         125.2275  153.7929  147.8556 O.2     1  UNL111     -0.3106
      4 N         121.0981  152.4277  145.9516 N.4     1  UNL111      0.4293
      5 N         116.8224  152.8862  146.2577 N.am    1  UNL111     -0.2800
      6 N         124.8198  153.1167  145.6730 N.am    1  UNL111     -0.1688
      7 N         125.5761  152.5750  144.6765 N.pl3   1  UNL111     -0.0914
      8 N         126.8513  152.9568  146.3665 N.am    1  UNL111     -0.1764
      9 N         126.7786  152.4906  145.0795 N.pl3   1  UNL111     -0.0938
     10 C         118.1999  152.3919  146.6785 C.3     1  UNL111      0.0441
     11 C         118.8157  151.5692  145.5067 C.3     1  UNL111     -0.0238
     12 C         119.1830  153.5722  146.9769 C.3     1  UNL111     -0.0238
     13 C         120.2802  151.1909  145.6890 C.3     1  UNL111     -0.0338
     14 C         120.6173  153.1330  147.2003 C.3     1  UNL111     -0.0338
     15 C         118.0604  151.4879  147.9523 C.3     1  UNL111      0.0267
     16 C         122.5965  152.1328  145.9906 C.3     1  UNL111     -0.0140
     17 C         116.5603  154.2789  146.2875 C.3     1  UNL111     -0.0024
     18 C         115.8080  151.9855  145.8918 C.2     1  UNL111      0.1527
     19 C         123.4121  153.3569  145.5586 C.3     1  UNL111      0.0456
     20 C         114.4262  152.5654  145.5896 C.3     1  UNL111      0.0357
     21 C         116.2070  154.9012  147.4871 C.3     1  UNL111     -0.0551
     22 C         116.6689  155.0262  145.1096 C.3     1  UNL111     -0.0551
     23 C         117.4922  151.5194  150.2474 C.3     1  UNL111     -0.0028
     24 C         113.4076  151.4873  145.2224 C.3     1  UNL111     -0.0412
     25 C         115.9698  156.2754  147.5086 C.3     1  UNL111     -0.0786
     26 C         116.4372  156.4010  145.1381 C.3     1  UNL111     -0.0786
     27 C         125.6033  153.3561  146.7831 C.2     1  UNL111      0.2956
     28 C         116.0889  157.0240  146.3368 C.3     1  UNL111     -0.0844
     29 C         112.0397  152.0894  144.9431 C.3     1  UNL111     -0.0653
     30 C         128.0936  153.0449  147.0914 C.3     1  UNL111      0.0362
     31 C         128.9753  154.1620  146.5602 C.3     1  UNL111     -0.0414
     32 H         120.9374  153.0572  145.1514 H       1  UNL111      0.1340
     33 H         118.7172  152.1483  144.5779 H       1  UNL111      0.0582
     34 H         118.2667  150.6378  145.3402 H       1  UNL111      0.0582
     35 H         118.8625  154.1480  147.8521 H       1  UNL111      0.0582
     36 H         119.1880  154.2751  146.1336 H       1  UNL111      0.0582
     37 H         120.4436  150.4956  146.5183 H       1  UNL111      0.0746
     38 H         120.6620  150.7380  144.7675 H       1  UNL111      0.0746
     39 H         121.2569  154.0068  147.3544 H       1  UNL111      0.0746
     40 H         120.7357  152.4498  148.0472 H       1  UNL111      0.0746
     41 H         117.2477  150.7631  147.8507 H       1  UNL111      0.0992
     42 H         118.9771  150.9177  148.1322 H       1  UNL111      0.0992
     43 H         122.7865  151.3060  145.2967 H       1  UNL111      0.0838
     44 H         122.8433  151.7960  147.0037 H       1  UNL111      0.0838
     45 H         123.1865  153.6258  144.5206 H       1  UNL111      0.1029
     46 H         123.1658  154.2177  146.1885 H       1  UNL111      0.1029
     47 H         114.5109  153.2691  144.7552 H       1  UNL111      0.0746
     48 H         114.0726  153.1064  146.4743 H       1  UNL111      0.0746
     49 H         116.1077  154.3244  148.4035 H       1  UNL111      0.0994
     50 H         116.9288  154.5471  144.1699 H       1  UNL111      0.0994
     51 H         117.3197  152.1965  151.0881 H       1  UNL111      0.0816
     52 H         118.3128  150.8424  150.5029 H       1  UNL111      0.0816
     53 H         116.5756  150.9509  150.0629 H       1  UNL111      0.0816
     54 H         113.3224  150.7576  146.0363 H       1  UNL111      0.0369
     55 H         113.7486  150.9382  144.3366 H       1  UNL111      0.0369
     56 H         115.6848  156.7641  148.4377 H       1  UNL111      0.0890
     57 H         116.5171  156.9888  144.2265 H       1  UNL111      0.0890
     58 H         115.8986  158.0953  146.3568 H       1  UNL111      0.0876
     59 H         111.6518  152.6072  145.8262 H       1  UNL111      0.0262
     60 H         111.3279  151.3043  144.6696 H       1  UNL111      0.0262
     61 H         112.0877  152.8071  144.1178 H       1  UNL111      0.0262
     62 H         128.6058  152.0806  147.0107 H       1  UNL111      0.0881
     63 H         127.8710  153.2274  148.1481 H       1  UNL111      0.0881
     64 H         129.2361  153.9922  145.5101 H       1  UNL111      0.0362
     65 H         129.9034  154.2237  147.1365 H       1  UNL111      0.0362
     66 H         128.4647  155.1287  146.6239 H       1  UNL111      0.0362
@<TRIPOS>UNITY_ATOM_ATTR
4 1
charge 1
@<TRIPOS>BOND
     1     1    15    1
     2     1    23    1
     3     2    18    2
     4     3    27    2
     5     4    13    1
     6     4    14    1
     7     4    16    1
     8     5    10    1
     9     5    17    1
    10     5    18   am
    11     6     7   ar
    12     6    19    1
    13     6    27   ar
    14     7     9   ar
    15     8     9   ar
    16     8    27   ar
    17     8    30    1
    18    10    11    1
    19    10    12    1
    20    10    15    1
    21    11    13    1
    22    12    14    1
    23    16    19    1
    24    17    21   ar
    25    17    22   ar
    26    18    20    1
    27    20    24    1
    28    21    25   ar
    29    22    26   ar
    30    24    29    1
    31    25    28   ar
    32    26    28   ar
    33    30    31    1
    34     4    32    1
    35    11    33    1
    36    11    34    1
    37    12    35    1
    38    12    36    1
    39    13    37    1
    40    13    38    1
    41    14    39    1
    42    14    40    1
    43    15    41    1
    44    15    42    1
    45    16    43    1
    46    16    44    1
    47    19    45    1
    48    19    46    1
    49    20    47    1
    50    20    48    1
    51    21    49    1
    52    22    50    1
    53    23    51    1
    54    23    52    1
    55    23    53    1
    56    24    54    1
    57    24    55    1
    58    25    56    1
    59    26    57    1
    60    28    58    1
    61    29    59    1
    62    29    60    1
    63    29    61    1
    64    30    62    1
    65    30    63    1
    66    31    64    1
    67    31    65    1
    68    31    66    1
@<TRIPOS>MOLECULE
9946998
 55 57 0 0 0
SMALL
GASTEIGER

@<TRIPOS>ATOM
      1 O         115.2942  155.3956  146.9230 O.3     1  UNL111     -0.4630
      2 O         123.7892  151.4248  146.0566 O.2     1  UNL111     -0.3106
      3 N         120.3207  154.4587  146.2427 N.4     1  UNL111      0.4292
      4 N         117.0838  153.1435  147.3002 N.pl3   1  UNL111     -0.3611
      5 N         124.0230  153.7136  145.7584 N.am    1  UNL111     -0.1688
      6 N         125.0392  154.6064  145.9252 N.pl3   1  UNL111     -0.0914
      7 N         125.7911  152.6347  146.3458 N.am    1  UNL111     -0.1764
      8 N         126.0853  153.9713  146.2712 N.pl3   1  UNL111     -0.0938
      9 C         117.3604  154.2346  146.3272 C.3     1  UNL111      0.0199
     10 C         118.1537  155.3234  147.0903 C.3     1  UNL111     -0.0287
     11 C         118.2035  153.7605  145.1330 C.3     1  UNL111     -0.0287
     12 C         119.5466  154.8612  147.4817 C.3     1  UNL111     -0.0345
     13 C         119.6066  153.3285  145.5308 C.3     1  UNL111     -0.0345
     14 C         116.0280  154.8603  145.8154 C.3     1  UNL111      0.0219
     15 C         121.7591  154.0942  146.6106 C.3     1  UNL111     -0.0140
     16 C         122.6869  154.0826  145.3898 C.3     1  UNL111      0.0456
     17 C         116.4002  151.9827  146.9143 C.3     1  UNL111     -0.0297
     18 C         115.0036  151.9221  147.0180 C.3     1  UNL111     -0.0606
     19 C         117.0700  150.8756  146.3877 C.3     1  UNL111     -0.0606
     20 C         114.0268  155.9021  146.5159 C.3     1  UNL111     -0.0029
     21 C         124.4642  152.4384  146.0462 C.2     1  UNL111      0.2956
     22 C         114.2963  150.7940  146.5955 C.3     1  UNL111     -0.0794
     23 C         116.3669  149.7427  145.9660 C.3     1  UNL111     -0.0794
     24 C         114.9793  149.7043  146.0653 C.3     1  UNL111     -0.0845
     25 C         126.7592  151.6464  146.7468 C.3     1  UNL111      0.0362
     26 C         126.8651  151.5440  148.2578 C.3     1  UNL111     -0.0414
     27 H         120.3548  155.2775  145.6208 H       1  UNL111      0.1340
     28 H         116.6208  153.5224  148.1352 H       1  UNL111      0.1711
     29 H         117.6234  155.6263  148.0020 H       1  UNL111      0.0573
     30 H         118.2400  156.2233  146.4664 H       1  UNL111      0.0573
     31 H         118.2912  154.5794  144.4054 H       1  UNL111      0.0573
     32 H         117.7087  152.9428  144.5973 H       1  UNL111      0.0573
     33 H         120.0947  155.6856  147.9506 H       1  UNL111      0.0746
     34 H         119.5337  154.0047  148.1646 H       1  UNL111      0.0746
     35 H         119.6186  152.4661  146.2014 H       1  UNL111      0.0746
     36 H         120.1812  153.0890  144.6321 H       1  UNL111      0.0746
     37 H         116.2419  155.6763  145.1137 H       1  UNL111      0.0984
     38 H         115.4203  154.1156  145.2887 H       1  UNL111      0.0984
     39 H         121.7314  153.1268  147.1248 H       1  UNL111      0.0838
     40 H         122.1085  154.8523  147.3214 H       1  UNL111      0.0838
     41 H         122.3412  153.3477  144.6565 H       1  UNL111      0.1029
     42 H         122.7084  155.0647  144.9052 H       1  UNL111      0.1029
     43 H         114.4460  152.7591  147.4324 H       1  UNL111      0.0985
     44 H         118.1510  150.8535  146.3323 H       1  UNL111      0.0985
     45 H         113.5179  156.3022  147.3967 H       1  UNL111      0.0816
     46 H         113.4142  155.1011  146.0913 H       1  UNL111      0.0816
     47 H         114.1541  156.7079  145.7868 H       1  UNL111      0.0816
     48 H         113.2131  150.7652  146.6860 H       1  UNL111      0.0890
     49 H         116.9037  148.8829  145.5723 H       1  UNL111      0.0890
     50 H         114.4320  148.8216  145.7430 H       1  UNL111      0.0876
     51 H         127.7275  151.9127  146.3100 H       1  UNL111      0.0881
     52 H         126.4530  150.6771  146.3388 H       1  UNL111      0.0881
     53 H         127.1692  152.5000  148.6967 H       1  UNL111      0.0362
     54 H         127.6041  150.7871  148.5379 H       1  UNL111      0.0362
     55 H         125.9029  151.2650  148.6999 H       1  UNL111      0.0362
@<TRIPOS>UNITY_ATOM_ATTR
3 1
charge 1
@<TRIPOS>BOND
     1     1    14    1
     2     1    20    1
     3     2    21    2
     4     3    12    1
     5     3    13    1
     6     3    15    1
     7     4     9    1
     8     4    17    1
     9     5     6   ar
    10     5    16    1
    11     5    21   ar
    12     6     8   ar
    13     7     8   ar
    14     7    21   ar
    15     7    25    1
    16     9    10    1
    17     9    11    1
    18     9    14    1
    19    10    12    1
    20    11    13    1
    21    15    16    1
    22    17    18   ar
    23    17    19   ar
    24    18    22   ar
    25    19    23   ar
    26    22    24   ar
    27    23    24   ar
    28    25    26    1
    29     3    27    1
    30     4    28    1
    31    10    29    1
    32    10    30    1
    33    11    31    1
    34    11    32    1
    35    12    33    1
    36    12    34    1
    37    13    35    1
    38    13    36    1
    39    14    37    1
    40    14    38    1
    41    15    39    1
    42    15    40    1
    43    16    41    1
    44    16    42    1
    45    18    43    1
    46    19    44    1
    47    20    45    1
    48    20    46    1
    49    20    47    1
    50    22    48    1
    51    23    49    1
    52    24    50    1
    53    25    51    1
    54    25    52    1
    55    26    53    1
    56    26    54    1
    57    26    55    1
@<TRIPOS>MOLECULE
145996686
 52 53 0 0 0
SMALL
GASTEIGER

@<TRIPOS>ATOM
      1 O         119.8193  154.2354  144.0125 O.3     1  UNL111     -0.4622
      2 O         118.1798  155.5074  147.6522 O.2     1  UNL111     -0.3820
      3 O         126.6028  152.4153  146.6645 O.3     1  UNL111     -0.4515
      4 N         122.9474  153.2506  146.9095 N.4     1  UNL111      0.4291
      5 N         118.6041  153.3974  146.8310 N.am    1  UNL111     -0.2801
      6 C         120.0277  153.7451  146.4154 C.3     1  UNL111      0.0441
      7 C         120.8239  152.4960  145.9183 C.3     1  UNL111     -0.0237
      8 C         120.8002  154.2689  147.6657 C.3     1  UNL111     -0.0237
      9 C         122.2862  152.7883  145.6361 C.3     1  UNL111     -0.0337
     10 C         122.2908  154.4949  147.4499 C.3     1  UNL111     -0.0337
     11 C         119.9853  154.8449  145.2968 C.3     1  UNL111      0.0267
     12 C         124.4461  153.4630  146.7559 C.3     1  UNL111     -0.0191
     13 C         118.0994  152.1024  146.5458 C.3     1  UNL111     -0.0024
     14 C         117.7655  154.3738  147.3986 C.2     1  UNL111      0.1520
     15 C         125.2128  152.1492  146.5615 C.3     1  UNL111      0.0050
     16 C         116.3139  153.9916  147.6804 C.3     1  UNL111      0.0339
     17 C         117.7492  151.7539  145.2383 C.3     1  UNL111     -0.0551
     18 C         117.9426  151.1773  147.5833 C.3     1  UNL111     -0.0551
     19 C         119.5394  155.1998  143.0010 C.3     1  UNL111     -0.0028
     20 C         115.4833  155.1791  148.1417 C.3     1  UNL111     -0.0445
     21 C         117.2528  150.4783  144.9686 C.3     1  UNL111     -0.0786
     22 C         117.4460  149.9029  147.3089 C.3     1  UNL111     -0.0786
     23 C         117.1034  149.5540  146.0026 C.3     1  UNL111     -0.0844
     24 H         127.0883  151.5791  146.5301 H       1  UNL111      0.2372
     25 H         122.8255  152.5157  147.6211 H       1  UNL111      0.1342
     26 H         120.3890  152.0754  145.0058 H       1  UNL111      0.0582
     27 H         120.7743  151.6997  146.6739 H       1  UNL111      0.0582
     28 H         120.6688  153.5527  148.4889 H       1  UNL111      0.0582
     29 H         120.3925  155.2175  148.0249 H       1  UNL111      0.0582
     30 H         122.7870  151.8692  145.3191 H       1  UNL111      0.0747
     31 H         122.4358  153.5594  144.8739 H       1  UNL111      0.0747
     32 H         122.4969  155.3123  146.7518 H       1  UNL111      0.0747
     33 H         122.7722  154.7244  148.4071 H       1  UNL111      0.0747
     34 H         119.1792  155.5654  145.4630 H       1  UNL111      0.0992
     35 H         120.9206  155.4110  145.2622 H       1  UNL111      0.0992
     36 H         124.7983  153.9554  147.6701 H       1  UNL111      0.0844
     37 H         124.6092  154.1523  145.9194 H       1  UNL111      0.0844
     38 H         124.9415  151.4219  147.3330 H       1  UNL111      0.0992
     39 H         125.0175  151.7171  145.5762 H       1  UNL111      0.0992
     40 H         116.2931  153.2278  148.4636 H       1  UNL111      0.0735
     41 H         115.8622  153.5831  146.7708 H       1  UNL111      0.0735
     42 H         117.8444  152.4712  144.4270 H       1  UNL111      0.0994
     43 H         118.1993  151.4400  148.6061 H       1  UNL111      0.0994
     44 H         119.4574  154.6782  142.0438 H       1  UNL111      0.0816
     45 H         120.3508  155.9308  142.9355 H       1  UNL111      0.0816
     46 H         118.5903  155.7035  143.2074 H       1  UNL111      0.0816
     47 H         115.8823  155.6024  149.0695 H       1  UNL111      0.0319
     48 H         114.4489  154.8720  148.3243 H       1  UNL111      0.0319
     49 H         115.4770  155.9713  147.3857 H       1  UNL111      0.0319
     50 H         116.9708  150.2070  143.9537 H       1  UNL111      0.0890
     51 H         117.3148  149.1824  148.1132 H       1  UNL111      0.0890
     52 H         116.7069  148.5629  145.7910 H       1  UNL111      0.0876
@<TRIPOS>UNITY_ATOM_ATTR
4 1
charge 1
@<TRIPOS>BOND
     1     1    11    1
     2     1    19    1
     3     2    14    2
     4     3    15    1
     5     4     9    1
     6     4    10    1
     7     4    12    1
     8     5     6    1
     9     5    13    1
    10     5    14   am
    11     6     7    1
    12     6     8    1
    13     6    11    1
    14     7     9    1
    15     8    10    1
    16    12    15    1
    17    13    17   ar
    18    13    18   ar
    19    14    16    1
    20    16    20    1
    21    17    21   ar
    22    18    22   ar
    23    21    23   ar
    24    22    23   ar
    25     3    24    1
    26     4    25    1
    27     7    26    1
    28     7    27    1
    29     8    28    1
    30     8    29    1
    31     9    30    1
    32     9    31    1
    33    10    32    1
    34    10    33    1
    35    11    34    1
    36    11    35    1
    37    12    36    1
    38    12    37    1
    39    15    38    1
    40    15    39    1
    41    16    40    1
    42    16    41    1
    43    17    42    1
    44    18    43    1
    45    19    44    1
    46    19    45    1
    47    19    46    1
    48    20    47    1
    49    20    48    1
    50    20    49    1
    51    21    50    1
    52    22    51    1
    53    23    52    1
@<TRIPOS>MOLECULE
14494490
 68 70 0 0 0
SMALL
GASTEIGER

@<TRIPOS>ATOM
      1 O         122.2742  155.0849  146.0792 O.3     1  UNL111     -0.5191
      2 O         123.4409  152.9886  149.0868 O.2     1  UNL111     -0.3819
      3 O         121.7971  157.1786  146.8641 O.2     1  UNL111     -0.3407
      4 O         114.6830  153.9953  144.9964 O.2     1  UNL111     -0.3106
      5 N         118.4792  152.5000  147.1691 N.4     1  UNL111      0.4294
      6 N         122.7877  152.3281  146.9816 N.am    1  UNL111     -0.2764
      7 N         114.7737  152.1551  146.4048 N.am    1  UNL111     -0.1688
      8 N         113.8711  151.4916  147.1812 N.pl3   1  UNL111     -0.0914
      9 N         112.8348  153.0402  146.1056 N.am    1  UNL111     -0.1764
     10 N         112.7243  152.0121  147.0053 N.pl3   1  UNL111     -0.0938
     11 C         121.4281  153.0062  147.0816 C.3     1  UNL111      0.0574
     12 C         120.5342  152.7366  145.8253 C.3     1  UNL111     -0.0205
     13 C         120.6697  152.4327  148.3159 C.3     1  UNL111     -0.0205
     14 C         119.0898  153.1897  145.9719 C.3     1  UNL111     -0.0332
     15 C         119.2159  152.8678  148.4313 C.3     1  UNL111     -0.0332
     16 C         121.6265  154.5493  147.2456 C.3     1  UNL111      0.0768
     17 C         116.9773  152.7651  147.2903 C.3     1  UNL111     -0.0139
     18 C         123.1185  151.6278  145.7938 C.3     1  UNL111     -0.0017
     19 C         123.7194  152.4211  148.0291 C.2     1  UNL111      0.1526
     20 C         116.1718  151.8450  146.3643 C.3     1  UNL111      0.0456
     21 C         125.0934  151.7912  147.8122 C.3     1  UNL111      0.0340
     22 C         123.6078  152.3197  144.6826 C.3     1  UNL111     -0.0550
     23 C         122.9464  150.2408  145.7395 C.3     1  UNL111     -0.0550
     24 C         122.3501  156.4481  146.0565 C.2     1  UNL111      0.2134
     25 C         126.0267  152.0186  148.9907 C.3     1  UNL111     -0.0445
     26 C         123.9105  151.6250  143.5118 C.3     1  UNL111     -0.0786
     27 C         123.2477  149.5512  144.5650 C.3     1  UNL111     -0.0786
     28 C         114.1473  153.1766  145.7215 C.2     1  UNL111      0.2956
     29 C         123.1752  156.8885  144.8723 C.3     1  UNL111      0.0567
     30 C         123.7263  150.2436  143.4523 C.3     1  UNL111     -0.0844
     31 C         123.4596  158.3792  144.8977 C.3     1  UNL111     -0.0382
     32 C         111.7125  153.8524  145.7117 C.3     1  UNL111      0.0362
     33 C         111.4840  155.0003  146.6782 C.3     1  UNL111     -0.0414
     34 H         118.5943  151.4829  147.0485 H       1  UNL111      0.1340
     35 H         120.5077  151.6602  145.6122 H       1  UNL111      0.0590
     36 H         120.9538  153.2187  144.9350 H       1  UNL111      0.0590
     37 H         121.1595  152.7148  149.2525 H       1  UNL111      0.0590
     38 H         120.7066  151.3351  148.2758 H       1  UNL111      0.0590
     39 H         118.9891  154.2705  146.1113 H       1  UNL111      0.0747
     40 H         118.5164  152.8925  145.0891 H       1  UNL111      0.0747
     41 H         118.7341  152.3331  149.2572 H       1  UNL111      0.0747
     42 H         119.1012  153.9448  148.5901 H       1  UNL111      0.0747
     43 H         120.6599  155.0470  147.3741 H       1  UNL111      0.1284
     44 H         122.2369  154.7918  148.1206 H       1  UNL111      0.1284
     45 H         116.8115  153.8280  147.0822 H       1  UNL111      0.0838
     46 H         116.6931  152.5693  148.3307 H       1  UNL111      0.0838
     47 H         116.5050  151.9650  145.3285 H       1  UNL111      0.1029
     48 H         116.3104  150.7947  146.6436 H       1  UNL111      0.1029
     49 H         125.5493  152.2246  146.9162 H       1  UNL111      0.0735
     50 H         124.9742  150.7133  147.6647 H       1  UNL111      0.0735
     51 H         123.7722  153.3926  144.7224 H       1  UNL111      0.0994
     52 H         122.5862  149.6905  146.6043 H       1  UNL111      0.0994
     53 H         126.1792  153.0878  149.1711 H       1  UNL111      0.0319
     54 H         127.0021  151.5618  148.7970 H       1  UNL111      0.0319
     55 H         125.6188  151.5775  149.9062 H       1  UNL111      0.0319
     56 H         124.3016  152.1571  142.6472 H       1  UNL111      0.0890
     57 H         123.1222  148.4717  144.5162 H       1  UNL111      0.0890
     58 H         122.6313  156.6306  143.9578 H       1  UNL111      0.0841
     59 H         124.1252  156.3433  144.8885 H       1  UNL111      0.0841
     60 H         123.9711  149.7031  142.5399 H       1  UNL111      0.0876
     61 H         122.5306  158.9581  144.8711 H       1  UNL111      0.0335
     62 H         124.0661  158.6659  144.0330 H       1  UNL111      0.0335
     63 H         124.0032  158.6597  145.8060 H       1  UNL111      0.0335
     64 H         110.8246  153.2139  145.6546 H       1  UNL111      0.0881
     65 H         111.9120  154.2543  144.7125 H       1  UNL111      0.0881
     66 H         111.2871  154.6297  147.6896 H       1  UNL111      0.0362
     67 H         110.6276  155.6022  146.3596 H       1  UNL111      0.0362
     68 H         112.3628  155.6519  146.7269 H       1  UNL111      0.0362
@<TRIPOS>UNITY_ATOM_ATTR
5 1
charge 1
@<TRIPOS>BOND
     1     1    16    1
     2     1    24    1
     3     2    19    2
     4     3    24    2
     5     4    28    2
     6     5    14    1
     7     5    15    1
     8     5    17    1
     9     6    11    1
    10     6    18    1
    11     6    19   am
    12     7     8   ar
    13     7    20    1
    14     7    28   ar
    15     8    10   ar
    16     9    10   ar
    17     9    28   ar
    18     9    32    1
    19    11    12    1
    20    11    13    1
    21    11    16    1
    22    12    14    1
    23    13    15    1
    24    17    20    1
    25    18    22   ar
    26    18    23   ar
    27    19    21    1
    28    21    25    1
    29    22    26   ar
    30    23    27   ar
    31    24    29    1
    32    26    30   ar
    33    27    30   ar
    34    29    31    1
    35    32    33    1
    36     5    34    1
    37    12    35    1
    38    12    36    1
    39    13    37    1
    40    13    38    1
    41    14    39    1
    42    14    40    1
    43    15    41    1
    44    15    42    1
    45    16    43    1
    46    16    44    1
    47    17    45    1
    48    17    46    1
    49    20    47    1
    50    20    48    1
    51    21    49    1
    52    21    50    1
    53    22    51    1
    54    23    52    1
    55    25    53    1
    56    25    54    1
    57    25    55    1
    58    26    56    1
    59    27    57    1
    60    29    58    1
    61    29    59    1
    62    30    60    1
    63    31    61    1
    64    31    62    1
    65    31    63    1
    66    32    64    1
    67    32    65    1
    68    33    66    1
    69    33    67    1
    70    33    68    1
@<TRIPOS>MOLECULE
145996648
 60 62 0 0 0
SMALL
GASTEIGER

@<TRIPOS>ATOM
      1 O         117.4087  151.8412  148.7723 O.3     1  UNL111     -0.4622
      2 O         115.7155  150.6167  145.1887 O.2     1  UNL111     -0.3832
      3 O         124.6356  153.4749  148.0635 O.2     1  UNL111     -0.3106
      4 N         120.6735  152.4888  145.7677 N.4     1  UNL111      0.4293
      5 N         116.3618  152.6976  145.9503 N.am    1  UNL111     -0.2809
      6 N         124.3766  153.3285  145.7628 N.am    1  UNL111     -0.1688
      7 N         125.2080  153.0659  144.7151 N.pl3   1  UNL111     -0.0914
      8 N         126.3741  153.0727  146.5231 N.am    1  UNL111     -0.1764
      9 N         126.3905  152.9266  145.1601 N.pl3   1  UNL111     -0.0938
     10 C         117.7509  152.2313  146.3690 C.3     1  UNL111      0.0439
     11 C         118.6599  153.4198  146.8247 C.3     1  UNL111     -0.0238
     12 C         118.4526  151.5820  145.1352 C.3     1  UNL111     -0.0238
     13 C         120.1058  153.0267  147.0615 C.3     1  UNL111     -0.0338
     14 C         119.9279  151.2565  145.3305 C.3     1  UNL111     -0.0338
     15 C         117.6175  151.1783  147.5228 C.3     1  UNL111      0.0267
     16 C         122.1797  152.2463  145.8499 C.3     1  UNL111     -0.0140
     17 C         115.9961  154.0524  146.1610 C.3     1  UNL111     -0.0027
     18 C         115.4307  151.7944  145.4176 C.2     1  UNL111      0.1495
     19 C         122.9665  153.5427  145.6246 C.3     1  UNL111      0.0456
     20 C         115.6916  154.5096  147.4460 C.3     1  UNL111     -0.0551
     21 C         115.9402  154.9302  145.0730 C.3     1  UNL111     -0.0551
     22 C         114.0332  152.2957  145.1247 C.3     1  UNL111      0.0314
     23 C         117.0268  150.9291  149.7986 C.3     1  UNL111     -0.0028
     24 C         115.3450  155.8464  147.6435 C.3     1  UNL111     -0.0786
     25 C         115.5961  156.2669  145.2758 C.3     1  UNL111     -0.0786
     26 C         125.0892  153.3211  146.9440 C.2     1  UNL111      0.2956
     27 C         115.3010  156.7240  146.5602 C.3     1  UNL111     -0.0844
     28 C         127.5710  153.0206  147.3238 C.3     1  UNL111      0.0362
     29 C         128.4227  154.2651  147.1416 C.3     1  UNL111     -0.0414
     30 H         120.5212  153.1978  145.0353 H       1  UNL111      0.1340
     31 H         118.2864  153.8831  147.7439 H       1  UNL111      0.0582
     32 H         118.6504  154.2079  146.0595 H       1  UNL111      0.0582
     33 H         118.3543  152.2597  144.2756 H       1  UNL111      0.0582
     34 H         117.9648  150.6486  144.8412 H       1  UNL111      0.0582
     35 H         120.6920  153.9073  147.3396 H       1  UNL111      0.0746
     36 H         120.2247  152.2593  147.8331 H       1  UNL111      0.0746
     37 H         120.0991  150.4759  146.0782 H       1  UNL111      0.0746
     38 H         120.3638  150.9340  144.3785 H       1  UNL111      0.0746
     39 H         116.7985  150.4768  147.3384 H       1  UNL111      0.0992
     40 H         118.5321  150.5859  147.6235 H       1  UNL111      0.0992
     41 H         122.4382  151.5246  145.0665 H       1  UNL111      0.0838
     42 H         122.3897  151.7876  146.8227 H       1  UNL111      0.0838
     43 H         122.7681  153.9490  144.6266 H       1  UNL111      0.1029
     44 H         122.6712  154.2973  146.3606 H       1  UNL111      0.1029
     45 H         115.7080  153.8318  148.2959 H       1  UNL111      0.0994
     46 H         116.1626  154.5845  144.0672 H       1  UNL111      0.0994
     47 H         113.3917  151.4434  144.8793 H       1  UNL111      0.0686
     48 H         114.0454  152.9703  144.2655 H       1  UNL111      0.0686
     49 H         113.6044  152.7944  145.9973 H       1  UNL111      0.0686
     50 H         116.9108  151.4895  150.7299 H       1  UNL111      0.0816
     51 H         117.7993  150.1672  149.9390 H       1  UNL111      0.0816
     52 H         116.0701  150.4581  149.5528 H       1  UNL111      0.0816
     53 H         115.0993  156.2034  148.6413 H       1  UNL111      0.0890
     54 H         115.5480  156.9533  144.4334 H       1  UNL111      0.0890
     55 H         115.0238  157.7647  146.7164 H       1  UNL111      0.0876
     56 H         128.1340  152.1255  147.0401 H       1  UNL111      0.0881
     57 H         127.2846  152.9259  148.3767 H       1  UNL111      0.0881
     58 H         128.7459  154.3719  146.1006 H       1  UNL111      0.0362
     59 H         129.3152  154.2134  147.7724 H       1  UNL111      0.0362
     60 H         127.8622  155.1667  147.4101 H       1  UNL111      0.0362
@<TRIPOS>UNITY_ATOM_ATTR
4 1
charge 1
@<TRIPOS>BOND
     1     1    15    1
     2     1    23    1
     3     2    18    2
     4     3    26    2
     5     4    13    1
     6     4    14    1
     7     4    16    1
     8     5    10    1
     9     5    17    1
    10     5    18   am
    11     6     7   ar
    12     6    19    1
    13     6    26   ar
    14     7     9   ar
    15     8     9   ar
    16     8    26   ar
    17     8    28    1
    18    10    11    1
    19    10    12    1
    20    10    15    1
    21    11    13    1
    22    12    14    1
    23    16    19    1
    24    17    20   ar
    25    17    21   ar
    26    18    22    1
    27    20    24   ar
    28    21    25   ar
    29    24    27   ar
    30    25    27   ar
    31    28    29    1
    32     4    30    1
    33    11    31    1
    34    11    32    1
    35    12    33    1
    36    12    34    1
    37    13    35    1
    38    13    36    1
    39    14    37    1
    40    14    38    1
    41    15    39    1
    42    15    40    1
    43    16    41    1
    44    16    42    1
    45    19    43    1
    46    19    44    1
    47    20    45    1
    48    21    46    1
    49    22    47    1
    50    22    48    1
    51    22    49    1
    52    23    50    1
    53    23    51    1
    54    23    52    1
    55    24    53    1
    56    25    54    1
    57    27    55    1
    58    28    56    1
    59    28    57    1
    60    29    58    1
    61    29    59    1
    62    29    60    1
@<TRIPOS>MOLECULE
162172
 45 46 0 0 0
SMALL
GASTEIGER

@<TRIPOS>ATOM
      1 O         121.3315  152.8320  148.6823 O.3     1  UNL111     -0.4622
      2 O         120.0723  150.4839  145.4242 O.2     1  UNL111     -0.3820
      3 N         119.5570  152.6464  146.0261 N.am    1  UNL111     -0.2802
      4 N         123.2980  154.6776  145.3084 N.4     1  UNL111      0.4319
      5 C         121.0143  153.0280  146.2485 C.3     1  UNL111      0.0439
      6 C         121.8146  152.7392  144.9352 C.3     1  UNL111     -0.0239
      7 C         121.1921  154.5583  146.5344 C.3     1  UNL111     -0.0239
      8 C         123.2525  153.2394  144.9406 C.3     1  UNL111     -0.0315
      9 C         122.6452  154.9848  146.6111 C.3     1  UNL111     -0.0315
     10 C         121.5945  152.1802  147.4359 C.3     1  UNL111      0.0267
     11 C         118.5443  153.6014  146.3009 C.3     1  UNL111     -0.0024
     12 C         119.2097  151.3337  145.6583 C.2     1  UNL111      0.1520
     13 C         117.7253  150.9848  145.5716 C.3     1  UNL111      0.0339
     14 C         118.2158  153.9214  147.6213 C.3     1  UNL111     -0.0551
     15 C         117.8657  154.2138  145.2421 C.3     1  UNL111     -0.0551
     16 C         121.6258  151.9891  149.7935 C.3     1  UNL111     -0.0028
     17 C         117.4944  149.5017  145.3266 C.3     1  UNL111     -0.0445
     18 C         117.2174  154.8606  147.8807 C.3     1  UNL111     -0.0786
     19 C         116.8680  155.1525  145.5063 C.3     1  UNL111     -0.0786
     20 C         116.5462  155.4762  146.8242 C.3     1  UNL111     -0.0844
     21 H         122.8620  155.2412  144.5635 H       1  UNL111      0.1346
     22 H         124.2795  154.9887  145.3425 H       1  UNL111      0.1346
     23 H         121.2846  153.2023  144.0911 H       1  UNL111      0.0581
     24 H         121.8588  151.6699  144.7134 H       1  UNL111      0.0581
     25 H         120.7080  154.8568  147.4697 H       1  UNL111      0.0581
     26 H         120.7057  155.1405  145.7396 H       1  UNL111      0.0581
     27 H         123.8879  152.7002  145.6489 H       1  UNL111      0.0741
     28 H         123.6998  153.1550  143.9451 H       1  UNL111      0.0741
     29 H         122.7325  156.0658  146.7569 H       1  UNL111      0.0741
     30 H         123.2103  154.4752  147.3969 H       1  UNL111      0.0741
     31 H         121.1750  151.1702  147.4596 H       1  UNL111      0.0992
     32 H         122.6804  152.0765  147.3537 H       1  UNL111      0.0992
     33 H         117.2757  151.5475  144.7480 H       1  UNL111      0.0735
     34 H         117.2305  151.2641  146.5073 H       1  UNL111      0.0735
     35 H         118.7192  153.4357  148.4535 H       1  UNL111      0.0994
     36 H         118.1027  153.9650  144.2111 H       1  UNL111      0.0994
     37 H         121.4375  152.5533  150.7106 H       1  UNL111      0.0816
     38 H         122.6772  151.6869  149.7753 H       1  UNL111      0.0816
     39 H         120.9772  151.1080  149.7852 H       1  UNL111      0.0816
     40 H         117.9471  149.1832  144.3818 H       1  UNL111      0.0319
     41 H         116.4225  149.2861  145.2808 H       1  UNL111      0.0319
     42 H         117.9311  148.8985  146.1294 H       1  UNL111      0.0319
     43 H         116.9533  155.1057  148.9071 H       1  UNL111      0.0890
     44 H         116.3322  155.6263  144.6868 H       1  UNL111      0.0890
     45 H         115.7614  156.2017  147.0294 H       1  UNL111      0.0876
@<TRIPOS>UNITY_ATOM_ATTR
4 1
charge 1
@<TRIPOS>BOND
     1     1    10    1
     2     1    16    1
     3     2    12    2
     4     3     5    1
     5     3    11    1
     6     3    12   am
     7     4     8    1
     8     4     9    1
     9     5     6    1
    10     5     7    1
    11     5    10    1
    12     6     8    1
    13     7     9    1
    14    11    14   ar
    15    11    15   ar
    16    12    13    1
    17    13    17    1
    18    14    18   ar
    19    15    19   ar
    20    18    20   ar
    21    19    20   ar
    22     4    21    1
    23     4    22    1
    24     6    23    1
    25     6    24    1
    26     7    25    1
    27     7    26    1
    28     8    27    1
    29     8    28    1
    30     9    29    1
    31     9    30    1
    32    10    31    1
    33    10    32    1
    34    13    33    1
    35    13    34    1
    36    14    35    1
    37    15    36    1
    38    16    37    1
    39    16    38    1
    40    16    39    1
    41    17    40    1
    42    17    41    1
    43    17    42    1
    44    18    43    1
    45    19    44    1
    46    20    45    1
