@<TRIPOS>MOLECULE
7021854
 31 31 0 0 0
SMALL
GASTEIGER

@<TRIPOS>ATOM
      1 O         118.5767  153.2461  148.1259 O.2     1  TYR111     -0.3700
      2 OH        125.0328  151.3243  146.1466 O.2     1  TYR111     -0.5649
      3 O         116.4154  154.1125  145.4146 O.co2   2  GLY222     -0.5628
      4 OXT       114.5383  152.9073  145.9310 O.co2   2  GLY222     -0.5628
      5 N         118.3879  155.3801  145.9838 N.4     1  TYR111      0.4482
      6 N         118.1176  152.2090  146.1140 N.am    2  GLY222     -0.3063
      7 CA        119.4082  154.2858  146.1097 C.3     1  TYR111      0.0760
      8 CB        120.6466  154.8464  146.8123 C.3     1  TYR111     -0.0026
      9 CG        121.8324  153.9235  146.6619 C.3     1  TYR111     -0.0638
     10 C         118.7456  153.1478  146.9122 C.2     1  TYR111      0.1586
     11 CD1       122.0712  152.9147  147.6073 C.3     1  TYR111     -0.0644
     12 CD2       122.6854  154.0372  145.5546 C.3     1  TYR111     -0.0644
     13 CE1       123.1434  152.0339  147.4488 C.3     1  TYR111     -0.0314
     14 CE2       123.7566  153.1569  145.3987 C.3     1  TYR111     -0.0314
     15 CA        116.6920  151.9359  146.3665 C.3     2  GLY222      0.0469
     16 CZ        123.9768  152.1627  146.3438 C.3     1  TYR111      0.0326
     17 C         115.7749  153.0916  145.8533 C.2     2  GLY222      0.0429
     18 H         125.0682  150.6879  146.8800 H       1  TYR111      0.3342
     19 H         118.6056  156.1601  145.3676 H       1  TYR111      0.1471
     20 H         118.0404  155.6896  146.8978 H       1  TYR111      0.1471
     21 H         117.5081  154.9318  145.5840 H       1  TYR111      0.1471
     22 H         118.3802  152.1144  145.1417 H       2  GLY222      0.1921
     23 H         119.6280  153.9640  145.0861 H       1  TYR111      0.1253
     24 H         120.4579  155.0284  147.8782 H       1  TYR111      0.0668
     25 H         120.9128  155.8240  146.3885 H       1  TYR111      0.0668
     26 H         121.4236  152.8017  148.4768 H       1  TYR111      0.0929
     27 H         122.5332  154.8102  144.8047 H       1  TYR111      0.0929
     28 H         123.3087  151.2596  148.1920 H       1  TYR111      0.1102
     29 H         124.4207  153.2446  144.5428 H       1  TYR111      0.1102
     30 H         116.5337  151.8059  147.4420 H       2  GLY222      0.0934
     31 H         116.4400  151.0084  145.8439 H       2  GLY222      0.0934
@<TRIPOS>UNITY_ATOM_ATTR
3 1
charge -1
5 1
charge 1
@<TRIPOS>BOND
     1     1    10    2
     2     2    16    1
     3     3    17   ar
     4     4    17   ar
     5     5     7    1
     6     6    10   am
     7     6    15    1
     8     7     8    1
     9     7    10    1
    10     8     9    1
    11     9    11   ar
    12     9    12   ar
    13    11    13   ar
    14    12    14   ar
    15    13    16   ar
    16    14    16   ar
    17    15    17    1
    18     2    18    1
    19     5    19    1
    20     5    20    1
    21     5    21    1
    22     6    22    1
    23     7    23    1
    24     8    24    1
    25     8    25    1
    26    11    26    1
    27    12    27    1
    28    13    28    1
    29    14    29    1
    30    15    30    1
    31    15    31    1
@<TRIPOS>MOLECULE
123715
 38 38 0 0 0
SMALL
GASTEIGER

@<TRIPOS>ATOM
      1 O         120.8771  156.2006  145.2749 O.2     1  TYR111     -0.3697
      2 OH        121.8297  148.3209  144.4727 O.2     1  TYR111     -0.5649
      3 O         117.3898  153.2647  145.6459 O.2     2  GLY222     -0.3775
      4 O         119.5058  155.8439  148.1829 O.co2   3  GLY333     -0.5628
      5 OXT       118.3294  154.4774  149.5461 O.co2   3  GLY333     -0.5628
      6 N         120.0609  154.1268  144.8022 N.am    2  GLY222     -0.2929
      7 N         121.8441  155.5204  147.6846 N.4     1  TYR111      0.4482
      8 N         117.6527  155.4909  146.1823 N.am    3  GLY333     -0.3097
      9 CA        121.7447  154.4295  146.6540 C.3     1  TYR111      0.0763
     10 CB        121.2460  153.1619  147.3670 C.3     1  TYR111     -0.0025
     11 CG        121.4193  151.8712  146.5975 C.3     1  TYR111     -0.0638
     12 C         120.8582  154.9866  145.5081 C.2     1  TYR111      0.1609
     13 CD1       120.3135  151.0198  146.4282 C.3     1  TYR111     -0.0644
     14 CD2       122.6589  151.4823  146.0724 C.3     1  TYR111     -0.0644
     15 CA        118.8064  154.5997  144.2299 C.3     2  GLY222      0.0909
     16 CE1       120.4331  149.8269  145.7140 C.3     1  TYR111     -0.0314
     17 CE2       122.7764  150.2889  145.3570 C.3     1  TYR111     -0.0314
     18 CZ        121.6652  149.4741  145.1795 C.3     1  TYR111      0.0326
     19 C         117.8058  154.3884  145.3696 C.2     2  GLY222      0.1620
     20 CA        117.2376  155.3621  147.5889 C.3     3  GLY333      0.0454
     21 C         118.4437  155.2334  148.5508 C.2     3  GLY333      0.0426
     22 H         120.9852  147.8397  144.4644 H       1  TYR111      0.3342
     23 H         120.1180  153.1239  144.9317 H       2  GLY222      0.1957
     24 H         122.3973  155.3419  148.5200 H       1  TYR111      0.1471
     25 H         120.8530  155.6853  148.0335 H       1  TYR111      0.1471
     26 H         122.0433  156.4265  147.2482 H       1  TYR111      0.1471
     27 H         118.1783  156.3320  145.9703 H       3  GLY333      0.1898
     28 H         122.7592  154.3107  146.2617 H       1  TYR111      0.1254
     29 H         120.1877  153.2813  147.6217 H       1  TYR111      0.0668
     30 H         121.7775  153.0343  148.3197 H       1  TYR111      0.0668
     31 H         119.3403  151.2830  146.8478 H       1  TYR111      0.0929
     32 H         123.5522  152.0838  146.2176 H       1  TYR111      0.0929
     33 H         118.5399  153.9704  143.3776 H       2  GLY222      0.1134
     34 H         118.8656  155.6493  143.9319 H       2  GLY222      0.1134
     35 H         119.5593  149.1937  145.5921 H       1  TYR111      0.1102
     36 H         123.7360  149.9868  144.9457 H       1  TYR111      0.1102
     37 H         116.5790  154.4946  147.6962 H       3  GLY333      0.0931
     38 H         116.6811  156.2684  147.8455 H       3  GLY333      0.0931
@<TRIPOS>UNITY_ATOM_ATTR
4 1
charge -1
7 1
charge 1
@<TRIPOS>BOND
     1     1    12    2
     2     2    18    1
     3     3    19    2
     4     4    21   ar
     5     5    21   ar
     6     6    12   am
     7     6    15    1
     8     7     9    1
     9     8    19   am
    10     8    20    1
    11     9    10    1
    12     9    12    1
    13    10    11    1
    14    11    13   ar
    15    11    14   ar
    16    13    16   ar
    17    14    17   ar
    18    15    19    1
    19    16    18   ar
    20    17    18   ar
    21    20    21    1
    22     2    22    1
    23     6    23    1
    24     7    24    1
    25     7    25    1
    26     7    26    1
    27     8    27    1
    28     9    28    1
    29    10    29    1
    30    10    30    1
    31    13    31    1
    32    14    32    1
    33    15    33    1
    34    15    34    1
    35    16    35    1
    36    17    36    1
    37    20    37    1
    38    20    38    1
