@<TRIPOS>MOLECULE
4644453
 39 41 0 0 0
SMALL
GASTEIGER

@<TRIPOS>ATOM
      1 BR        125.1008  151.5488  146.9510 Br      1  UNL111     -0.0612
      2 CL        113.5566  154.6826  145.0969 Cl      1  UNL111     -0.1309
      3 S         118.8193  152.8927  147.9684 S.O2    1  UNL111     -0.0028
      4 S         119.9812  151.0323  144.3061 S.3     1  UNL111     -0.1726
      5 O         119.6945  154.0451  148.0425 O.2     1  UNL111     -0.2404
      6 O         118.4467  152.1663  149.1654 O.2     1  UNL111     -0.2404
      7 O         125.1863  154.5660  146.1581 O.2     1  UNL111     -0.5774
      8 N         119.4326  151.7940  146.8153 N.3     1  UNL111     -0.1788
      9 C         119.9992  152.3703  145.5526 C.3     1  UNL111      0.0807
     10 C         118.5729  150.6236  146.4892 C.3     1  UNL111      0.0294
     11 C         119.3181  149.8043  145.4508 C.3     1  UNL111      0.0041
     12 C         121.3855  152.9470  145.7174 C.3     1  UNL111     -0.0264
     13 C         117.3332  153.3990  147.1592 C.3     1  UNL111      0.1075
     14 C         122.4293  152.1410  146.1751 C.3     1  UNL111     -0.0283
     15 C         121.6256  154.2877  145.4118 C.3     1  UNL111     -0.0540
     16 C         116.1638  152.6933  147.3873 C.3     1  UNL111     -0.0181
     17 C         117.3638  154.4920  146.3094 C.3     1  UNL111     -0.0181
     18 C         123.7093  152.6743  146.3268 C.3     1  UNL111      0.0527
     19 C         122.9054  154.8210  145.5634 C.3     1  UNL111     -0.0222
     20 C         123.9473  154.0143  146.0207 C.3     1  UNL111      0.0607
     21 C         114.9906  153.0923  146.7470 C.3     1  UNL111     -0.0388
     22 C         116.1906  154.8912  145.6691 C.3     1  UNL111     -0.0388
     23 C         115.0039  154.1913  145.8879 C.3     1  UNL111      0.0193
     24 C         125.4980  155.1506  147.4207 C.3     1  UNL111      0.0306
     25 H         119.3990  153.2018  145.2471 H       1  UNL111      0.1212
     26 H         117.6356  150.9546  146.0933 H       1  UNL111      0.0808
     27 H         118.3713  150.0411  147.3638 H       1  UNL111      0.0808
     28 H         120.1083  149.2443  145.9055 H       1  UNL111      0.0672
     29 H         118.6875  149.0900  144.9640 H       1  UNL111      0.0672
     30 H         122.2538  151.1495  146.4015 H       1  UNL111      0.1037
     31 H         120.8552  154.8851  145.0733 H       1  UNL111      0.0950
     32 H         116.1603  151.8811  148.0240 H       1  UNL111      0.1066
     33 H         118.2449  155.0056  146.1516 H       1  UNL111      0.1066
     34 H         123.0814  155.8124  145.3372 H       1  UNL111      0.1119
     35 H         114.1127  152.5745  146.9088 H       1  UNL111      0.1010
     36 H         116.2005  155.7042  145.0336 H       1  UNL111      0.1010
     37 H         126.4926  155.5443  147.3956 H       1  UNL111      0.1070
     38 H         125.4285  154.4056  148.1856 H       1  UNL111      0.1070
     39 H         124.8068  155.9406  147.6284 H       1  UNL111      0.1070
@<TRIPOS>BOND
     1     1    18    1
     2     2    23    1
     3     3     5    2
     4     3     6    2
     5     3     8    1
     6     3    13    1
     7     4     9    1
     8     4    11    1
     9     7    20    1
    10     7    24    1
    11     8     9    1
    12     8    10    1
    13     9    12    1
    14    10    11    1
    15    12    14   ar
    16    12    15   ar
    17    13    16   ar
    18    13    17   ar
    19    14    18   ar
    20    15    19   ar
    21    16    21   ar
    22    17    22   ar
    23    18    20   ar
    24    19    20   ar
    25    21    23   ar
    26    22    23   ar
    27     9    25    1
    28    10    26    1
    29    10    27    1
    30    11    28    1
    31    11    29    1
    32    14    30    1
    33    15    31    1
    34    16    32    1
    35    17    33    1
    36    19    34    1
    37    21    35    1
    38    22    36    1
    39    24    37    1
    40    24    38    1
    41    24    39    1
