@<TRIPOS>MOLECULE
155804574
 66 72 0 0 0
SMALL
GASTEIGER

@<TRIPOS>ATOM
      1 O         119.1533  156.5173  145.9387 O.3     1  UNL111     -0.4434
      2 O         124.7141  153.9905  149.3009 O.3     1  UNL111     -0.5646
      3 N         118.7077  154.3618  147.6910 N.4     1  UNL111      0.4431
      4 N         120.2906  150.2344  145.5788 N.4     1  UNL111      0.4279
      5 C         120.3390  152.7148  145.0816 C.3     1  UNL111      0.0009
      6 C         120.6352  152.9847  146.6070 C.3     1  UNL111      0.0166
      7 C         118.2971  154.3102  145.3062 C.3     1  UNL111      0.0055
      8 C         120.0249  154.4288  146.9332 C.3     1  UNL111      0.0235
      9 C         119.5672  155.1855  145.6413 C.3     1  UNL111      0.0488
     10 C         118.8009  152.8733  144.8535 C.3     1  UNL111     -0.0188
     11 C         120.9235  151.3282  144.7014 C.3     1  UNL111     -0.0177
     12 C         117.5533  154.3485  146.6831 C.3     1  UNL111      0.0112
     13 C         120.0426  151.8250  147.4757 C.3     1  UNL111     -0.0318
     14 C         120.9395  153.8334  144.2242 C.2     1  UNL111     -0.0810
     15 C         122.1611  152.9117  146.8617 C.ar    1  UNL111     -0.0362
     16 C         120.5549  155.0796  144.5228 C.2     1  UNL111     -0.0624
     17 C         122.4636  151.3506  144.8280 C.3     1  UNL111     -0.0229
     18 C         117.4376  154.9518  144.2000 C.3     1  UNL111     -0.0447
     19 C         120.4972  150.4215  147.0609 C.3     1  UNL111     -0.0363
     20 C         122.9897  152.1265  146.0190 C.ar    1  UNL111     -0.0584
     21 C         116.4928  153.3317  147.0656 C.ar    1  UNL111     -0.0627
     22 C         122.7470  153.5212  147.9917 C.ar    1  UNL111     -0.0216
     23 C         120.6722  148.8255  145.1532 C.3     1  UNL111     -0.0440
     24 C         124.3692  152.0440  146.2718 C.ar    1  UNL111     -0.0629
     25 C         120.1782  157.4888  146.1406 C.3     1  UNL111      0.0039
     26 C         116.0823  153.2376  148.4134 C.ar    1  UNL111     -0.0729
     27 C         115.8182  152.5267  146.1344 C.ar    1  UNL111     -0.0729
     28 C         124.1165  153.4119  148.2243 C.ar    1  UNL111      0.0347
     29 C         124.9290  152.6886  147.3683 C.ar    1  UNL111     -0.0309
     30 C         115.1040  152.3250  148.8162 C.ar    1  UNL111     -0.0832
     31 C         114.8380  151.6139  146.5378 C.ar    1  UNL111     -0.0832
     32 C         114.4901  151.5049  147.8787 C.ar    1  UNL111     -0.0861
     33 H         124.0958  154.5411  149.8053 H       1  UNL111      0.3342
     34 H         118.6034  155.2635  148.1858 H       1  UNL111      0.1454
     35 H         118.6339  153.6457  148.4209 H       1  UNL111      0.1454
     36 H         119.2773  150.2482  145.4034 H       1  UNL111      0.1331
     37 H         120.6739  155.0452  147.5562 H       1  UNL111      0.1037
     38 H         118.2541  152.0819  145.3648 H       1  UNL111      0.0493
     39 H         118.5848  152.7263  143.7856 H       1  UNL111      0.0493
     40 H         120.6440  151.0662  143.6733 H       1  UNL111      0.0870
     41 H         117.0747  155.3315  146.8003 H       1  UNL111      0.0998
     42 H         118.9502  151.8201  147.4260 H       1  UNL111      0.0546
     43 H         120.2928  151.9735  148.5343 H       1  UNL111      0.0546
     44 H         121.5996  153.6485  143.3788 H       1  UNL111      0.0834
     45 H         120.8760  155.9324  143.9323 H       1  UNL111      0.0942
     46 H         122.8819  151.8172  143.9266 H       1  UNL111      0.0614
     47 H         122.8696  150.3345  144.8506 H       1  UNL111      0.0614
     48 H         118.0096  155.0742  143.2738 H       1  UNL111      0.0345
     49 H         117.0754  155.9431  144.4933 H       1  UNL111      0.0345
     50 H         116.5615  154.3461  143.9572 H       1  UNL111      0.0345
     51 H         121.5470  150.2234  147.2954 H       1  UNL111      0.0740
     52 H         119.8865  149.6661  147.5681 H       1  UNL111      0.0740
     53 H         122.1561  154.0642  148.7221 H       1  UNL111      0.1130
     54 H         121.7037  148.6259  145.4498 H       1  UNL111      0.0667
     55 H         120.5432  148.7517  144.0707 H       1  UNL111      0.0667
     56 H         119.9906  148.1355  145.6582 H       1  UNL111      0.0667
     57 H         125.0261  151.4683  145.6196 H       1  UNL111      0.0932
     58 H         119.7139  158.3795  146.5730 H       1  UNL111      0.0831
     59 H         120.6298  157.7769  145.1881 H       1  UNL111      0.0831
     60 H         120.9446  157.1293  146.8316 H       1  UNL111      0.0831
     61 H         116.4823  153.8983  149.1812 H       1  UNL111      0.0927
     62 H         116.0047  152.5909  145.0663 H       1  UNL111      0.0927
     63 H         125.9977  152.6164  147.5623 H       1  UNL111      0.1103
     64 H         114.7927  152.2741  149.8590 H       1  UNL111      0.0880
     65 H         114.3172  151.0055  145.7992 H       1  UNL111      0.0880
     66 H         113.7100  150.8104  148.1870 H       1  UNL111      0.0874
@<TRIPOS>UNITY_ATOM_ATTR
3 1
charge 1
4 1
charge 1
@<TRIPOS>BOND
     1     1     9    1
     2     1    25    1
     3     2    28    1
     4     3     8    1
     5     3    12    1
     6     4    11    1
     7     4    19    1
     8     4    23    1
     9     5     6    1
    10     5    10    1
    11     5    11    1
    12     5    14    1
    13     6     8    1
    14     6    13    1
    15     6    15    1
    16     7     9    1
    17     7    10    1
    18     7    12    1
    19     7    18    1
    20     8     9    1
    21     9    16    1
    22    11    17    1
    23    12    21    1
    24    13    19    1
    25    14    16    2
    26    15    20   ar
    27    15    22   ar
    28    17    20    1
    29    20    24   ar
    30    21    26   ar
    31    21    27   ar
    32    22    28   ar
    33    24    29   ar
    34    26    30   ar
    35    27    31   ar
    36    28    29   ar
    37    30    32   ar
    38    31    32   ar
    39     2    33    1
    40     3    34    1
    41     3    35    1
    42     4    36    1
    43     8    37    1
    44    10    38    1
    45    10    39    1
    46    11    40    1
    47    12    41    1
    48    13    42    1
    49    13    43    1
    50    14    44    1
    51    16    45    1
    52    17    46    1
    53    17    47    1
    54    18    48    1
    55    18    49    1
    56    18    50    1
    57    19    51    1
    58    19    52    1
    59    22    53    1
    60    23    54    1
    61    23    55    1
    62    23    56    1
    63    24    57    1
    64    25    58    1
    65    25    59    1
    66    25    60    1
    67    26    61    1
    68    27    62    1
    69    29    63    1
    70    30    64    1
    71    31    65    1
    72    32    66    1
