@<TRIPOS>MOLECULE
5361092
 54 58 0 0 0
SMALL
GASTEIGER

@<TRIPOS>ATOM
      1 O         120.9566  155.3342  145.9623 O.3     1  UNL111     -0.4392
      2 O         114.7478  151.2588  145.9331 O.3     1  UNL111     -0.5646
      3 N         121.5223  152.7843  145.5974 N.4     1  UNL111      0.4307
      4 C         118.8754  154.0354  145.6812 C.3     1  UNL111      0.0141
      5 C         120.0323  154.4437  146.6479 C.3     1  UNL111      0.0296
      6 C         120.8769  153.1867  146.9437 C.3     1  UNL111     -0.0014
      7 C         119.4943  153.5492  144.3400 C.3     1  UNL111     -0.0340
      8 C         118.0151  155.3028  145.4053 C.3     1  UNL111     -0.0390
      9 C         119.5361  155.1371  147.9310 C.3     1  UNL111     -0.0262
     10 C         118.0654  152.8480  146.2439 C.ar    1  UNL111     -0.0397
     11 C         120.5260  152.4338  144.5150 C.3     1  UNL111     -0.0353
     12 C         120.0894  152.0587  147.6037 C.3     1  UNL111     -0.0179
     13 C         117.4843  155.9487  146.6871 C.3     1  UNL111     -0.0566
     14 C         118.6107  156.3201  147.6446 C.3     1  UNL111     -0.0524
     15 C         118.6683  151.9171  147.1206 C.ar    1  UNL111     -0.0587
     16 C         122.6567  151.7866  145.6655 C.3     1  UNL111     -0.0379
     17 C         123.7390  152.1296  146.6706 C.3     1  UNL111     -0.0514
     18 C         124.5124  153.4618  146.4715 C.3     1  UNL111     -0.0555
     19 C         125.1054  151.4180  146.4749 C.3     1  UNL111     -0.0555
     20 C         116.7386  152.6060  145.8328 C.ar    1  UNL111     -0.0230
     21 C         125.7675  152.7196  146.9735 C.3     1  UNL111     -0.0586
     22 C         117.9335  150.8163  147.5961 C.ar    1  UNL111     -0.0630
     23 C         116.0324  151.5050  146.3131 C.ar    1  UNL111      0.0345
     24 C         116.6191  150.6124  147.1924 C.ar    1  UNL111     -0.0309
     25 H         120.5797  156.2352  145.9468 H       1  UNL111      0.2430
     26 H         114.4171  151.9915  145.3885 H       1  UNL111      0.3342
     27 H         121.9381  153.6856  145.2957 H       1  UNL111      0.1366
     28 H         121.7181  153.4737  147.5829 H       1  UNL111      0.0966
     29 H         119.9798  154.3900  143.8266 H       1  UNL111      0.0527
     30 H         118.7108  153.1999  143.6547 H       1  UNL111      0.0527
     31 H         117.1792  155.0913  144.7305 H       1  UNL111      0.0400
     32 H         118.6200  156.0499  144.8737 H       1  UNL111      0.0400
     33 H         120.3934  155.5045  148.5087 H       1  UNL111      0.0498
     34 H         118.9979  154.4320  148.5740 H       1  UNL111      0.0498
     35 H         120.0720  151.4721  144.7728 H       1  UNL111      0.0742
     36 H         121.0904  152.3059  143.5845 H       1  UNL111      0.0742
     37 H         120.0437  152.2609  148.6821 H       1  UNL111      0.0629
     38 H         120.6140  151.1038  147.4882 H       1  UNL111      0.0629
     39 H         116.7843  155.2723  147.1906 H       1  UNL111      0.0332
     40 H         116.9166  156.8508  146.4308 H       1  UNL111      0.0332
     41 H         119.1867  157.1528  147.2241 H       1  UNL111      0.0345
     42 H         118.1863  156.6871  148.5863 H       1  UNL111      0.0345
     43 H         123.0773  151.7471  144.6537 H       1  UNL111      0.0745
     44 H         122.2176  150.8077  145.8850 H       1  UNL111      0.0745
     45 H         123.3825  152.0055  147.7036 H       1  UNL111      0.0513
     46 H         124.1800  154.2998  147.0898 H       1  UNL111      0.0361
     47 H         124.5848  153.7943  145.4294 H       1  UNL111      0.0361
     48 H         125.3507  151.1746  145.4344 H       1  UNL111      0.0361
     49 H         125.2738  150.5339  147.0952 H       1  UNL111      0.0361
     50 H         116.2424  153.2635  145.1264 H       1  UNL111      0.1128
     51 H         125.8978  152.7597  148.0612 H       1  UNL111      0.0330
     52 H         126.7082  152.9934  146.4903 H       1  UNL111      0.0330
     53 H         118.3808  150.1042  148.2882 H       1  UNL111      0.0932
     54 H         116.0543  149.7596  147.5610 H       1  UNL111      0.1103
@<TRIPOS>UNITY_ATOM_ATTR
3 1
charge 1
@<TRIPOS>BOND
     1     1     5    1
     2     2    23    1
     3     3     6    1
     4     3    11    1
     5     3    16    1
     6     4     5    1
     7     4     7    1
     8     4     8    1
     9     4    10    1
    10     5     6    1
    11     5     9    1
    12     6    12    1
    13     7    11    1
    14     8    13    1
    15     9    14    1
    16    10    15   ar
    17    10    20   ar
    18    12    15    1
    19    13    14    1
    20    15    22   ar
    21    16    17    1
    22    17    18    1
    23    17    19    1
    24    18    21    1
    25    19    21    1
    26    20    23   ar
    27    22    24   ar
    28    23    24   ar
    29     1    25    1
    30     2    26    1
    31     3    27    1
    32     6    28    1
    33     7    29    1
    34     7    30    1
    35     8    31    1
    36     8    32    1
    37     9    33    1
    38     9    34    1
    39    11    35    1
    40    11    36    1
    41    12    37    1
    42    12    38    1
    43    13    39    1
    44    13    40    1
    45    14    41    1
    46    14    42    1
    47    16    43    1
    48    16    44    1
    49    17    45    1
    50    18    46    1
    51    18    47    1
    52    19    48    1
    53    19    49    1
    54    20    50    1
    55    21    51    1
    56    21    52    1
    57    22    53    1
    58    24    54    1
@<TRIPOS>MOLECULE
129318767
 54 58 0 0 0
SMALL
GASTEIGER

@<TRIPOS>ATOM
      1 O         120.4012  150.4197  146.5841 O.3     1  UNL1111    -0.4394
      2 O         122.1508  151.8811  147.6540 O.co2   1  UNL1111    -0.7534
      3 O         115.0007  155.4823  146.9905 O.2     1  UNL1111    -0.5646
      4 N         121.4878  153.0201  147.2215 N.3     1  UNL1111     0.4060
      5 C         118.6525  152.0948  147.0434 C.3     1  UNL1111     0.0137
      6 C         119.7437  151.5872  146.0493 C.3     1  UNL1111     0.0268
      7 C         120.7834  152.7210  145.8635 C.3     1  UNL1111    -0.0197
      8 C         119.3232  152.4002  148.4095 C.3     1  UNL1111    -0.0367
      9 C         120.4719  153.4010  148.2887 C.3     1  UNL1111    -0.0538
     10 C         117.6121  150.9539  147.2437 C.3     1  UNL1111    -0.0390
     11 C         119.1236  151.1043  144.7163 C.3     1  UNL1111    -0.0264
     12 C         120.1386  153.9357  145.1838 C.3     1  UNL1111    -0.0206
     13 C         118.0289  153.4214  146.5473 C.3     1  UNL1111    -0.0397
     14 C         122.5219  154.1298  147.1236 C.3     1  UNL1111    -0.0563
     15 C         116.9945  150.4743  145.9285 C.3     1  UNL1111    -0.0566
     16 C         118.0599  150.0258  144.9343 C.3     1  UNL1111    -0.0524
     17 C         118.7575  154.2822  145.6925 C.3     1  UNL1111    -0.0589
     18 C         123.6136  153.9570  146.0832 C.3     1  UNL1111    -0.0541
     19 C         124.7468  155.0182  146.1418 C.3     1  UNL1111    -0.0557
     20 C         124.7214  152.9008  146.3508 C.3     1  UNL1111    -0.0557
     21 C         116.7635  153.8471  146.9970 C.3     1  UNL1111    -0.0230
     22 C         125.7209  153.8966  145.7294 C.3     1  UNL1111    -0.0586
     23 C         118.1912  155.4971  145.2683 C.3     1  UNL1111    -0.0630
     24 C         116.2274  155.0603  146.5705 C.3     1  UNL1111     0.0345
     25 C         116.9288  155.8839  145.7065 C.3     1  UNL1111    -0.0309
     26 H         121.1779  150.7493  147.1113 H       1  UNL1111     0.2430
     27 H         114.6072  154.7945  147.5521 H       1  UNL1111     0.3342
     28 H         121.6051  152.3459  145.2408 H       1  UNL1111     0.0933
     29 H         119.7074  151.4729  148.8536 H       1  UNL1111     0.0525
     30 H         118.5883  152.7920  149.1245 H       1  UNL1111     0.0525
     31 H         120.1183  154.4096  148.0551 H       1  UNL1111     0.0708
     32 H         121.0270  153.4505  149.2334 H       1  UNL1111     0.0708
     33 H         116.8147  151.2445  147.9355 H       1  UNL1111     0.0400
     34 H         118.1002  150.0936  147.7222 H       1  UNL1111     0.0400
     35 H         119.9094  150.6849  144.0752 H       1  UNL1111     0.0498
     36 H         118.6629  151.9243  144.1565 H       1  UNL1111     0.0498
     37 H         120.0467  153.7256  144.1100 H       1  UNL1111     0.0627
     38 H         120.7782  154.8193  145.2578 H       1  UNL1111     0.0627
     39 H         122.9610  154.1947  148.1281 H       1  UNL1111     0.0712
     40 H         121.9726  155.0612  146.9553 H       1  UNL1111     0.0712
     41 H         116.3889  151.2714  145.4824 H       1  UNL1111     0.0332
     42 H         116.3129  149.6398  146.1300 H       1  UNL1111     0.0332
     43 H         118.5330  149.1052  145.2970 H       1  UNL1111     0.0345
     44 H         117.5881  149.7773  143.9767 H       1  UNL1111     0.0345
     45 H         123.2091  153.8853  145.0644 H       1  UNL1111     0.0511
     46 H         124.9438  155.4228  147.1416 H       1  UNL1111     0.0361
     47 H         124.6557  155.8480  145.4359 H       1  UNL1111     0.0361
     48 H         124.6099  151.9513  145.8211 H       1  UNL1111     0.0361
     49 H         124.9123  152.6981  147.4113 H       1  UNL1111     0.0361
     50 H         116.1929  153.2399  147.6917 H       1  UNL1111     0.1128
     51 H         126.7099  153.9310  146.1926 H       1  UNL1111     0.0330
     52 H         125.8361  153.7879  144.6449 H       1  UNL1111     0.0330
     53 H         118.7357  156.1541  144.5928 H       1  UNL1111     0.0932
     54 H         116.4966  156.8253  145.3795 H       1  UNL1111     0.1103
@<TRIPOS>UNITY_ATOM_ATTR
2 1
charge -1
4 1
charge 1
@<TRIPOS>BOND
     1     1     6    1
     2     2     4    1
     3     3    24    1
     4     4     7    1
     5     4     9    1
     6     4    14    1
     7     5     6    1
     8     5     8    1
     9     5    10    1
    10     5    13    1
    11     6     7    1
    12     6    11    1
    13     7    12    1
    14     8     9    1
    15    10    15    1
    16    11    16    1
    17    12    17    1
    18    13    17   ar
    19    13    21   ar
    20    14    18    1
    21    15    16    1
    22    17    23   ar
    23    18    19    1
    24    18    20    1
    25    19    22    1
    26    20    22    1
    27    21    24   ar
    28    23    25   ar
    29    24    25   ar
    30     1    26    1
    31     3    27    1
    32     7    28    1
    33     8    29    1
    34     8    30    1
    35     9    31    1
    36     9    32    1
    37    10    33    1
    38    10    34    1
    39    11    35    1
    40    11    36    1
    41    12    37    1
    42    12    38    1
    43    14    39    1
    44    14    40    1
    45    15    41    1
    46    15    42    1
    47    16    43    1
    48    16    44    1
    49    18    45    1
    50    19    46    1
    51    19    47    1
    52    20    48    1
    53    20    49    1
    54    21    50    1
    55    22    51    1
    56    22    52    1
    57    23    53    1
    58    25    54    1
@<TRIPOS>MOLECULE
13080261
 57 61 0 0 0
SMALL
GASTEIGER

@<TRIPOS>ATOM
      1 O         121.4206  155.3016  146.0098 O.3     1  UNL111     -0.4392
      2 O         114.8637  151.9927  145.8165 O.3     1  UNL111     -0.5835
      3 N         121.7390  152.7005  145.6444 N.4     1  UNL111      0.4307
      4 C         119.2279  154.2032  145.7136 C.3     1  UNL111      0.0141
      5 C         120.4121  154.5020  146.6872 C.3     1  UNL111      0.0296
      6 C         121.1323  153.1697  146.9885 C.3     1  UNL111     -0.0014
      7 C         119.8041  153.6611  144.3762 C.3     1  UNL111     -0.0340
      8 C         118.4899  155.5440  145.4313 C.3     1  UNL111     -0.0389
      9 C         119.9721  155.2399  147.9669 C.3     1  UNL111     -0.0262
     10 C         118.3102  153.0978  146.2742 C.ar    1  UNL111     -0.0395
     11 C         120.7166  152.4489  144.5581 C.3     1  UNL111     -0.0353
     12 C         120.2346  152.1274  147.6520 C.3     1  UNL111     -0.0178
     13 C         118.0109  156.2362  146.7088 C.3     1  UNL111     -0.0566
     14 C         119.1599  156.5023  147.6746 C.3     1  UNL111     -0.0524
     15 C         118.8091  152.1225  147.1611 C.ar    1  UNL111     -0.0586
     16 C         122.7632  151.5911  145.7188 C.3     1  UNL111     -0.0379
     17 C         123.9155  151.8580  146.6672 C.3     1  UNL111     -0.0514
     18 C         116.9725  152.9750  145.8511 C.ar    1  UNL111     -0.0220
     19 C         124.8452  153.0593  146.3455 C.3     1  UNL111     -0.0555
     20 C         125.1672  150.9587  146.4774 C.3     1  UNL111     -0.0555
     21 C         126.0172  152.1916  146.8475 C.3     1  UNL111     -0.0586
     22 C         117.9604  151.1087  147.6374 C.ar    1  UNL111     -0.0627
     23 C         116.1325  151.9597  146.3228 C.ar    1  UNL111      0.0345
     24 C         116.6307  151.0289  147.2238 C.ar    1  UNL111     -0.0298
     25 C         113.9418  151.0298  146.3156 C.3     1  UNL111      0.0293
     26 H         121.1229  156.2317  145.9826 H       1  UNL111      0.2430
     27 H         122.2442  153.5540  145.3407 H       1  UNL111      0.1366
     28 H         121.9977  153.3744  147.6276 H       1  UNL111      0.0966
     29 H         120.3748  154.4499  143.8679 H       1  UNL111      0.0527
     30 H         118.9948  153.3920  143.6848 H       1  UNL111      0.0527
     31 H         117.6431  155.4094  144.7503 H       1  UNL111      0.0400
     32 H         119.1647  156.2320  144.9042 H       1  UNL111      0.0400
     33 H         120.8551  155.5279  148.5508 H       1  UNL111      0.0498
     34 H         119.3668  154.5882  148.6067 H       1  UNL111      0.0498
     35 H         120.1683  151.5376  144.8158 H       1  UNL111      0.0742
     36 H         121.2690  152.2636  143.6301 H       1  UNL111      0.0742
     37 H         120.2033  152.3406  148.7287 H       1  UNL111      0.0629
     38 H         120.6629  151.1248  147.5464 H       1  UNL111      0.0629
     39 H         117.2475  155.6274  147.2064 H       1  UNL111      0.0332
     40 H         117.5306  157.1866  146.4484 H       1  UNL111      0.0332
     41 H         119.8124  157.2791  147.2592 H       1  UNL111      0.0345
     42 H         118.7633  156.9060  148.6135 H       1  UNL111      0.0345
     43 H         123.1393  151.4633  144.6969 H       1  UNL111      0.0745
     44 H         122.2325  150.6744  145.9961 H       1  UNL111      0.0745
     45 H         123.5902  151.8516  147.7173 H       1  UNL111      0.0513
     46 H         116.5410  153.6692  145.1332 H       1  UNL111      0.1130
     47 H         124.6543  153.9720  146.9160 H       1  UNL111      0.0361
     48 H         124.9105  153.3117  145.2806 H       1  UNL111      0.0361
     49 H         125.3294  150.6092  145.4509 H       1  UNL111      0.0361
     50 H         125.2475  150.1073  147.1583 H       1  UNL111      0.0361
     51 H         126.2094  152.2883  147.9223 H       1  UNL111      0.0330
     52 H         126.9588  152.3019  146.3045 H       1  UNL111      0.0330
     53 H         118.3297  150.3637  148.3415 H       1  UNL111      0.0933
     54 H         116.0156  150.2262  147.6183 H       1  UNL111      0.1105
     55 H         112.9744  151.2147  145.8390 H       1  UNL111      0.1069
     56 H         113.8070  151.1355  147.3972 H       1  UNL111      0.1069
     57 H         114.2547  150.0139  146.0532 H       1  UNL111      0.1069
@<TRIPOS>UNITY_ATOM_ATTR
3 1
charge 1
@<TRIPOS>BOND
     1     1     5    1
     2     2    23    1
     3     2    25    1
     4     3     6    1
     5     3    11    1
     6     3    16    1
     7     4     5    1
     8     4     7    1
     9     4     8    1
    10     4    10    1
    11     5     6    1
    12     5     9    1
    13     6    12    1
    14     7    11    1
    15     8    13    1
    16     9    14    1
    17    10    15   ar
    18    10    18   ar
    19    12    15    1
    20    13    14    1
    21    15    22   ar
    22    16    17    1
    23    17    19    1
    24    17    20    1
    25    18    23   ar
    26    19    21    1
    27    20    21    1
    28    22    24   ar
    29    23    24   ar
    30     1    26    1
    31     3    27    1
    32     6    28    1
    33     7    29    1
    34     7    30    1
    35     8    31    1
    36     8    32    1
    37     9    33    1
    38     9    34    1
    39    11    35    1
    40    11    36    1
    41    12    37    1
    42    12    38    1
    43    13    39    1
    44    13    40    1
    45    14    41    1
    46    14    42    1
    47    16    43    1
    48    16    44    1
    49    17    45    1
    50    18    46    1
    51    19    47    1
    52    19    48    1
    53    20    49    1
    54    20    50    1
    55    21    51    1
    56    21    52    1
    57    22    53    1
    58    24    54    1
    59    25    55    1
    60    25    56    1
    61    25    57    1
@<TRIPOS>MOLECULE
57257006
 56 60 0 0 0
SMALL
GASTEIGER

@<TRIPOS>ATOM
      1 O         121.2888  150.8136  146.5270 O.3     1  UNL111     -0.4382
      2 O         116.6082  150.0227  146.7748 O.2     1  UNL111     -0.4229
      3 O         115.2915  154.9545  147.3920 O.2     1  UNL111     -0.5835
      4 N         121.9712  153.3785  146.4488 N.4     1  UNL111      0.4307
      5 C         119.3483  152.2394  147.0604 C.3     1  UNL111      0.0331
      6 C         120.2694  151.6610  145.9367 C.3     1  UNL111      0.0365
      7 C         121.0625  152.8369  145.3204 C.3     1  UNL111     -0.0005
      8 C         120.2357  152.8748  148.1693 C.3     1  UNL111     -0.0304
      9 C         119.4884  150.8562  144.8765 C.3     1  UNL111     -0.0069
     10 C         118.5616  151.0639  147.6899 C.3     1  UNL111      0.0362
     11 C         118.4551  153.3680  146.5097 C.3     1  UNL111     -0.0355
     12 C         121.2222  153.9172  147.6440 C.3     1  UNL111     -0.0349
     13 C         120.1758  153.9117  144.6927 C.3     1  UNL111     -0.0177
     14 C         118.8775  154.1574  145.4198 C.3     1  UNL111     -0.0581
     15 C         123.0729  154.2928  145.9598 C.3     1  UNL111     -0.0378
     16 C         118.6035  149.7659  145.4750 C.3     1  UNL111      0.0231
     17 C         124.3077  154.2373  146.8404 C.3     1  UNL111     -0.0514
     18 C         117.7958  150.2972  146.6354 C.2     1  UNL111      0.0822
     19 C         125.1221  152.9151  146.8229 C.3     1  UNL111     -0.0555
     20 C         125.5754  154.9187  146.2588 C.3     1  UNL111     -0.0555
     21 C         117.2357  153.7042  147.1280 C.3     1  UNL111     -0.0215
     22 C         126.3951  153.7810  146.9003 C.3     1  UNL111     -0.0586
     23 C         118.0649  155.2068  144.9579 C.3     1  UNL111     -0.0627
     24 C         116.4362  154.7592  146.6722 C.3     1  UNL111      0.0346
     25 C         116.8528  155.5060  145.5789 C.3     1  UNL111     -0.0298
     26 C         114.4034  155.9696  146.9377 C.3     1  UNL111      0.0293
     27 H         120.9644  149.8961  146.6093 H       1  UNL111      0.2431
     28 H         122.4256  152.5062  146.7776 H       1  UNL111      0.1366
     29 H         121.7657  152.4496  144.5719 H       1  UNL111      0.0967
     30 H         120.8073  152.0898  148.6827 H       1  UNL111      0.0533
     31 H         119.6124  153.3401  148.9444 H       1  UNL111      0.0533
     32 H         120.1910  150.3833  144.1791 H       1  UNL111      0.0548
     33 H         118.8498  151.5183  144.2813 H       1  UNL111      0.0548
     34 H         117.8701  151.3881  148.4733 H       1  UNL111      0.0729
     35 H         119.2403  150.3481  148.1713 H       1  UNL111      0.0729
     36 H         120.7362  154.8516  147.3479 H       1  UNL111      0.0742
     37 H         121.9581  154.1463  148.4206 H       1  UNL111      0.0742
     38 H         119.9193  153.5893  143.6748 H       1  UNL111      0.0629
     39 H         120.7250  154.8548  144.5933 H       1  UNL111      0.0629
     40 H         122.6613  155.3069  145.9162 H       1  UNL111      0.0745
     41 H         123.3210  153.9810  144.9391 H       1  UNL111      0.0745
     42 H         119.2010  148.9224  145.8361 H       1  UNL111      0.0674
     43 H         117.9210  149.3839  144.7081 H       1  UNL111      0.0674
     44 H         124.1059  154.5850  147.8630 H       1  UNL111      0.0513
     45 H         125.0383  152.3411  145.8924 H       1  UNL111      0.0361
     46 H         124.9543  152.2443  147.6696 H       1  UNL111      0.0361
     47 H         125.7881  155.9233  146.6339 H       1  UNL111      0.0361
     48 H         125.6271  154.9303  145.1636 H       1  UNL111      0.0361
     49 H         116.8657  153.1585  147.9940 H       1  UNL111      0.1131
     50 H         127.2492  153.4239  146.3196 H       1  UNL111      0.0330
     51 H         126.7216  153.9950  147.9243 H       1  UNL111      0.0330
     52 H         118.3705  155.8092  144.1027 H       1  UNL111      0.0933
     53 H         116.2620  156.3289  145.1887 H       1  UNL111      0.1105
     54 H         113.5321  155.9724  147.5995 H       1  UNL111      0.1069
     55 H         114.0515  155.7614  145.9219 H       1  UNL111      0.1069
     56 H         114.8724  156.9572  146.9992 H       1  UNL111      0.1069
@<TRIPOS>UNITY_ATOM_ATTR
4 1
charge 1
@<TRIPOS>BOND
     1     1     6    1
     2     2    18    2
     3     3    24    1
     4     3    26    1
     5     4     7    1
     6     4    12    1
     7     4    15    1
     8     5     6    1
     9     5     8    1
    10     5    10    1
    11     5    11    1
    12     6     7    1
    13     6     9    1
    14     7    13    1
    15     8    12    1
    16     9    16    1
    17    10    18    1
    18    11    14   ar
    19    11    21   ar
    20    13    14    1
    21    14    23   ar
    22    15    17    1
    23    16    18    1
    24    17    19    1
    25    17    20    1
    26    19    22    1
    27    20    22    1
    28    21    24   ar
    29    23    25   ar
    30    24    25   ar
    31     1    27    1
    32     4    28    1
    33     7    29    1
    34     8    30    1
    35     8    31    1
    36     9    32    1
    37     9    33    1
    38    10    34    1
    39    10    35    1
    40    12    36    1
    41    12    37    1
    42    13    38    1
    43    13    39    1
    44    15    40    1
    45    15    41    1
    46    16    42    1
    47    16    43    1
    48    17    44    1
    49    19    45    1
    50    19    46    1
    51    20    47    1
    52    20    48    1
    53    21    49    1
    54    22    50    1
    55    22    51    1
    56    23    52    1
    57    25    53    1
    58    26    54    1
    59    26    55    1
    60    26    56    1
@<TRIPOS>MOLECULE
71314360
 31 35 0 0 0
SMALL
GASTEIGER

@<TRIPOS>ATOM
      1 O         118.9640  150.4138  146.0059 O.3     1  UNL111     -0.3052
      2 O         124.5365  155.3633  145.6969 O.co2   1  UNL111     -0.8036
      3 N         117.8442  152.7878  146.0037 N.4     1  UNL111      0.4555
      4 C         120.8776  152.0408  145.4984 C.3     1  UNL111      0.0585
      5 C         119.7729  151.3239  146.5531 C.3     1  UNL111      0.1178
      6 C         118.8548  152.4776  147.0424 C.3     1  UNL111      0.0830
      7 C         120.0204  152.5988  144.4072 C.3     1  UNL111      0.0620
      8 C         121.9118  150.9554  145.0841 C.3     1  UNL111     -0.0306
      9 C         120.6137  150.6178  147.4940 C.3     1  UNL111      0.0460
     10 C         121.5815  153.2849  146.1523 C.2     1  UNL111     -0.0268
     11 C         118.6019  153.0328  144.7565 C.3     1  UNL111      0.0565
     12 C         119.6501  153.5633  147.5113 C.3     1  UNL111      0.0735
     13 C         122.7186  150.3836  146.2984 C.3     1  UNL111     -0.0526
     14 C         121.8888  149.9168  147.5241 C.3     1  UNL111     -0.0356
     15 C         120.9409  154.0307  147.1646 C.2     1  UNL111     -0.0157
     16 C         116.8437  153.7622  146.3510 C.3     1  UNL111      0.0484
     17 C         115.8610  154.7211  146.6991 C.3     1  UNL111      0.0310
     18 C         122.8006  153.7760  145.6680 C.2     1  UNL111     -0.0480
     19 C         114.5690  154.8362  146.0604 C.3     1  UNL111      0.0184
     20 C         114.5838  154.4030  147.2973 C.3     1  UNL111      0.0184
     21 C         113.1868  154.5100  146.6571 C.3     1  UNL111      0.0089
     22 C         121.5061  155.1715  147.6993 C.2     1  UNL111     -0.0169
     23 C         123.4301  154.9355  146.1587 C.2     1  UNL111     -0.0997
     24 C         122.7368  155.5924  147.1939 C.2     1  UNL111     -0.0412
     25 H         117.4522  151.8343  145.8440 H       1  UNL111      0.1698
     26 H         122.6202  151.3541  144.3468 H       1  UNL111      0.0412
     27 H         121.4026  150.1238  144.5798 H       1  UNL111      0.0412
     28 H         123.4198  151.1546  146.6417 H       1  UNL111      0.0338
     29 H         123.3475  149.5535  145.9540 H       1  UNL111      0.0338
     30 H         121.7190  148.8369  147.4536 H       1  UNL111      0.0392
     31 H         122.4400  150.1057  148.4500 H       1  UNL111      0.0392
@<TRIPOS>UNITY_ATOM_ATTR
2 1
charge -1
3 1
charge 1
@<TRIPOS>BOND
     1     1     5    1
     2     2    23    1
     3     3     6    1
     4     3    11    1
     5     3    16    1
     6     4     5    1
     7     4     7    1
     8     4     8    1
     9     4    10    1
    10     5     6    1
    11     5     9    1
    12     6    12    1
    13     7    11    1
    14     8    13    1
    15     9    14    1
    16    10    15    2
    17    10    18    1
    18    12    15    1
    19    13    14    1
    20    15    22    1
    21    16    17    1
    22    17    19    1
    23    17    20    1
    24    18    23    2
    25    19    21    1
    26    20    21    1
    27    22    24    2
    28    23    24    1
    29     3    25    1
    30     8    26    1
    31     8    27    1
    32    13    28    1
    33    13    29    1
    34    14    30    1
    35    14    31    1
@<TRIPOS>MOLECULE
57088644
 53 57 0 0 0
SMALL
GASTEIGER

@<TRIPOS>ATOM
      1 O         120.8180  150.8029  146.4415 O.3     1  UNL111     -0.4382
      2 O         116.0827  150.5895  146.8054 O.2     1  UNL111     -0.4229
      3 O         115.2637  155.6016  147.4415 O.2     1  UNL111     -0.5646
      4 N         121.7875  153.2734  146.4508 N.4     1  UNL111      0.4307
      5 C         119.0687  152.4099  147.0937 C.3     1  UNL111      0.0331
      6 C         119.8878  151.7852  145.9167 C.3     1  UNL111      0.0365
      7 C         120.7934  152.8932  145.3285 C.3     1  UNL111     -0.0005
      8 C         120.0478  152.9022  148.1978 C.3     1  UNL111     -0.0304
      9 C         118.9889  151.1218  144.8500 C.3     1  UNL111     -0.0069
     10 C         118.1848  151.2956  147.7030 C.3     1  UNL111      0.0362
     11 C         118.2789  153.6439  146.6131 C.3     1  UNL111     -0.0357
     12 C         121.1339  153.8467  147.6845 C.3     1  UNL111     -0.0349
     13 C         120.0204  154.0926  144.7825 C.3     1  UNL111     -0.0177
     14 C         118.7709  154.4415  145.5531 C.3     1  UNL111     -0.0582
     15 C         122.9788  154.0715  145.9669 C.3     1  UNL111     -0.0378
     16 C         117.9944  150.1180  145.4329 C.3     1  UNL111      0.0231
     17 C         124.2136  153.8483  146.8209 C.3     1  UNL111     -0.0514
     18 C         117.2946  150.6897  146.6434 C.2     1  UNL111      0.0822
     19 C         124.8679  152.4414  146.7550 C.3     1  UNL111     -0.0555
     20 C         125.5430  154.3931  146.2328 C.3     1  UNL111     -0.0555
     21 C         117.0929  154.0528  147.2549 C.3     1  UNL111     -0.0225
     22 C         126.2341  153.1515  146.8322 C.3     1  UNL111     -0.0586
     23 C         118.0711  155.5941  145.1542 C.3     1  UNL111     -0.0629
     24 C         116.4164  155.1976  146.8393 C.3     1  UNL111      0.0345
     25 C         116.8994  155.9721  145.7993 C.3     1  UNL111     -0.0309
     26 H         120.4248  149.9094  146.4119 H       1  UNL111      0.2431
     27 H         114.9269  154.8924  148.0147 H       1  UNL111      0.3342
     28 H         122.1433  152.3409  146.7322 H       1  UNL111      0.1366
     29 H         121.4269  152.4659  144.5408 H       1  UNL111      0.0967
     30 H         120.5398  152.0396  148.6676 H       1  UNL111      0.0533
     31 H         119.4985  153.4042  149.0052 H       1  UNL111      0.0533
     32 H         119.6121  150.5994  144.1137 H       1  UNL111      0.0548
     33 H         118.4187  151.8790  144.3005 H       1  UNL111      0.0548
     34 H         117.5693  151.6507  148.5352 H       1  UNL111      0.0729
     35 H         118.7961  150.4813  148.1126 H       1  UNL111      0.0729
     36 H         120.7509  154.8411  147.4367 H       1  UNL111      0.0742
     37 H         121.9086  153.9600  148.4488 H       1  UNL111      0.0742
     38 H         119.7087  153.8553  143.7565 H       1  UNL111      0.0629
     39 H         120.6692  154.9733  144.7164 H       1  UNL111      0.0629
     40 H         122.6855  155.1268  145.9614 H       1  UNL111      0.0745
     41 H         123.1726  153.7649  144.9331 H       1  UNL111      0.0745
     42 H         118.4956  149.1931  145.7370 H       1  UNL111      0.0674
     43 H         117.2473  149.8565  144.6759 H       1  UNL111      0.0674
     44 H         124.0709  154.1896  147.8556 H       1  UNL111      0.0513
     45 H         124.7044  151.9070  145.8117 H       1  UNL111      0.0361
     46 H         124.6354  151.7715  147.5869 H       1  UNL111      0.0361
     47 H         125.8769  155.3561  146.6279 H       1  UNL111      0.0361
     48 H         125.5790  154.4266  145.1375 H       1  UNL111      0.0361
     49 H         116.6797  153.4957  148.0904 H       1  UNL111      0.1128
     50 H         127.0328  152.7134  146.2289 H       1  UNL111      0.0330
     51 H         126.5972  153.2992  147.8557 H       1  UNL111      0.0330
     52 H         118.4300  156.2085  144.3295 H       1  UNL111      0.0932
     53 H         116.3585  156.8622  145.4874 H       1  UNL111      0.1103
@<TRIPOS>UNITY_ATOM_ATTR
4 1
charge 1
@<TRIPOS>BOND
     1     1     6    1
     2     2    18    2
     3     3    24    1
     4     4     7    1
     5     4    12    1
     6     4    15    1
     7     5     6    1
     8     5     8    1
     9     5    10    1
    10     5    11    1
    11     6     7    1
    12     6     9    1
    13     7    13    1
    14     8    12    1
    15     9    16    1
    16    10    18    1
    17    11    14   ar
    18    11    21   ar
    19    13    14    1
    20    14    23   ar
    21    15    17    1
    22    16    18    1
    23    17    19    1
    24    17    20    1
    25    19    22    1
    26    20    22    1
    27    21    24   ar
    28    23    25   ar
    29    24    25   ar
    30     1    26    1
    31     3    27    1
    32     4    28    1
    33     7    29    1
    34     8    30    1
    35     8    31    1
    36     9    32    1
    37     9    33    1
    38    10    34    1
    39    10    35    1
    40    12    36    1
    41    12    37    1
    42    13    38    1
    43    13    39    1
    44    15    40    1
    45    15    41    1
    46    16    42    1
    47    16    43    1
    48    17    44    1
    49    19    45    1
    50    19    46    1
    51    20    47    1
    52    20    48    1
    53    21    49    1
    54    22    50    1
    55    22    51    1
    56    23    52    1
    57    25    53    1
@<TRIPOS>MOLECULE
71750031
 63 68 0 0 0
SMALL
GASTEIGER

@<TRIPOS>ATOM
      1 O         121.2477  155.3699  146.3475 O.3     1  UNL111     -0.4384
      2 O         116.7956  154.3228  146.9355 O.3     1  UNL111     -0.4170
      3 O         116.8576  156.2919  145.6740 O.3     1  UNL111     -0.4170
      4 O         116.2842  150.0411  145.3298 O.3     1  UNL111     -0.5835
      5 N         122.3904  152.9969  146.3850 N.4     1  UNL111      0.4307
      6 C         119.5841  153.6181  145.8266 C.3     1  UNL111      0.0294
      7 C         120.4021  154.3454  146.9424 C.3     1  UNL111      0.0354
      8 C         121.4080  153.3365  147.5340 C.3     1  UNL111     -0.0007
      9 C         118.5461  154.6315  145.2575 C.3     1  UNL111      0.0151
     10 C         120.5647  153.2126  144.6860 C.3     1  UNL111     -0.0310
     11 C         119.5203  155.0017  148.0190 C.3     1  UNL111     -0.0106
     12 C         117.6520  155.2896  146.3227 C.3     1  UNL111      0.0835
     13 C         118.9735  152.2954  146.3320 C.ar    1  UNL111     -0.0362
     14 C         121.7439  152.3668  145.1735 C.3     1  UNL111     -0.0350
     15 C         118.4838  155.9548  147.4211 C.3     1  UNL111      0.0019
     16 C         120.7494  152.1090  148.1598 C.3     1  UNL111     -0.0178
     17 C         119.5457  151.5966  147.4132 C.ar    1  UNL111     -0.0582
     18 C         123.6467  152.2949  146.8443 C.3     1  UNL111     -0.0378
     19 C         124.8332  152.5663  145.9375 C.3     1  UNL111     -0.0514
     20 C         117.8894  151.6921  145.6643 C.ar    1  UNL111     -0.0216
     21 C         125.4002  154.0122  145.9345 C.3     1  UNL111     -0.0555
     22 C         126.2152  152.1244  146.4900 C.3     1  UNL111     -0.0555
     23 C         118.9848  150.3793  147.8364 C.ar    1  UNL111     -0.0627
     24 C         126.8041  153.3846  145.8240 C.3     1  UNL111     -0.0586
     25 C         115.4958  154.5884  146.4050 C.3     1  UNL111      0.0392
     26 C         115.5264  156.0693  146.1448 C.3     1  UNL111      0.0392
     27 C         117.3388  150.4757  146.0828 C.ar    1  UNL111      0.0346
     28 C         117.8869  149.8242  147.1789 C.ar    1  UNL111     -0.0298
     29 C         115.6391  148.8442  145.7506 C.3     1  UNL111      0.0293
     30 H         120.7086  156.1522  146.1207 H       1  UNL111      0.2431
     31 H         122.6661  153.9493  146.0804 H       1  UNL111      0.1366
     32 H         122.0350  153.8408  148.2805 H       1  UNL111      0.0967
     33 H         117.9183  154.1703  144.4868 H       1  UNL111      0.0666
     34 H         119.0756  155.4328  144.7222 H       1  UNL111      0.0666
     35 H         120.9633  154.1113  144.1965 H       1  UNL111      0.0532
     36 H         120.0378  152.6600  143.8970 H       1  UNL111      0.0532
     37 H         120.1480  155.5738  148.7136 H       1  UNL111      0.0539
     38 H         118.9967  154.2451  148.6137 H       1  UNL111      0.0539
     39 H         121.4559  151.3447  145.4367 H       1  UNL111      0.0742
     40 H         122.5006  152.3143  144.3849 H       1  UNL111      0.0742
     41 H         118.9714  156.8554  147.0289 H       1  UNL111      0.0612
     42 H         117.8255  156.3050  148.2266 H       1  UNL111      0.0612
     43 H         120.4140  152.3763  149.1705 H       1  UNL111      0.0629
     44 H         121.4810  151.3013  148.2757 H       1  UNL111      0.0629
     45 H         123.4228  151.2238  146.8936 H       1  UNL111      0.0745
     46 H         123.8584  152.6470  147.8600 H       1  UNL111      0.0745
     47 H         124.6754  152.1821  144.9203 H       1  UNL111      0.0513
     48 H         117.4347  152.1585  144.7935 H       1  UNL111      0.1130
     49 H         125.2399  154.5660  146.8672 H       1  UNL111      0.0361
     50 H         125.0947  154.6391  145.0928 H       1  UNL111      0.0361
     51 H         126.5935  151.1706  146.1130 H       1  UNL111      0.0361
     52 H         126.2943  152.1308  147.5835 H       1  UNL111      0.0361
     53 H         119.4027  149.8449  148.6889 H       1  UNL111      0.0933
     54 H         127.5970  153.8907  146.3801 H       1  UNL111      0.0330
     55 H         127.1358  153.2246  144.7918 H       1  UNL111      0.0330
     56 H         114.7196  154.2860  147.1120 H       1  UNL111      0.1029
     57 H         115.3841  154.0181  145.4766 H       1  UNL111      0.1029
     58 H         114.7935  156.3966  145.4035 H       1  UNL111      0.1029
     59 H         115.3921  156.6440  147.0675 H       1  UNL111      0.1029
     60 H         117.4908  148.8815  147.5430 H       1  UNL111      0.1105
     61 H         114.8056  148.6558  145.0673 H       1  UNL111      0.1069
     62 H         115.2265  148.9513  146.7593 H       1  UNL111      0.1069
     63 H         116.3201  147.9890  145.6902 H       1  UNL111      0.1069
@<TRIPOS>UNITY_ATOM_ATTR
5 1
charge 1
@<TRIPOS>BOND
     1     1     7    1
     2     2    12    1
     3     2    25    1
     4     3    12    1
     5     3    26    1
     6     4    27    1
     7     4    29    1
     8     5     8    1
     9     5    14    1
    10     5    18    1
    11     6     7    1
    12     6     9    1
    13     6    10    1
    14     6    13    1
    15     7     8    1
    16     7    11    1
    17     8    16    1
    18     9    12    1
    19    10    14    1
    20    11    15    1
    21    12    15    1
    22    13    17   ar
    23    13    20   ar
    24    16    17    1
    25    17    23   ar
    26    18    19    1
    27    19    21    1
    28    19    22    1
    29    20    27   ar
    30    21    24    1
    31    22    24    1
    32    23    28   ar
    33    25    26    1
    34    27    28   ar
    35     1    30    1
    36     5    31    1
    37     8    32    1
    38     9    33    1
    39     9    34    1
    40    10    35    1
    41    10    36    1
    42    11    37    1
    43    11    38    1
    44    14    39    1
    45    14    40    1
    46    15    41    1
    47    15    42    1
    48    16    43    1
    49    16    44    1
    50    18    45    1
    51    18    46    1
    52    19    47    1
    53    20    48    1
    54    21    49    1
    55    21    50    1
    56    22    51    1
    57    22    52    1
    58    23    53    1
    59    24    54    1
    60    24    55    1
    61    25    56    1
    62    25    57    1
    63    26    58    1
    64    26    59    1
    65    28    60    1
    66    29    61    1
    67    29    62    1
    68    29    63    1
@<TRIPOS>MOLECULE
625439
 57 61 0 0 0
SMALL
GASTEIGER

@<TRIPOS>ATOM
      1 O         119.8640  154.5242  148.5112 O.3     1  UNL111     -0.4392
      2 O         114.7469  152.3244  145.7930 O.3     1  UNL111     -0.5835
      3 N         121.6452  152.7822  145.6565 N.4     1  UNL111      0.4307
      4 C         119.1869  154.3569  146.1149 C.3     1  UNL111      0.0141
      5 C         120.3460  154.3704  147.1625 C.3     1  UNL111      0.0296
      6 C         121.0843  153.0090  147.0744 C.3     1  UNL111     -0.0014
      7 C         119.7588  154.1027  144.6896 C.3     1  UNL111     -0.0340
      8 C         118.4614  155.7352  146.1489 C.3     1  UNL111     -0.0389
      9 C         121.3003  155.5666  146.9587 C.3     1  UNL111     -0.0262
     10 C         118.2348  153.1789  146.4148 C.ar    1  UNL111     -0.0395
     11 C         120.5900  152.8286  144.5729 C.3     1  UNL111     -0.0353
     12 C         120.1417  151.8784  147.5326 C.3     1  UNL111     -0.0178
     13 C         119.3974  156.9419  146.0297 C.3     1  UNL111     -0.0566
     14 C         120.5494  156.8966  147.0239 C.3     1  UNL111     -0.0524
     15 C         118.7125  152.0130  147.0531 C.ar    1  UNL111     -0.0586
     16 C         122.5381  151.5590  145.4909 C.3     1  UNL111     -0.0379
     17 C         123.7102  151.5140  146.4523 C.3     1  UNL111     -0.0514
     18 C         116.8894  153.2045  146.0039 C.ar    1  UNL111     -0.0220
     19 C         124.7578  152.6566  146.3558 C.3     1  UNL111     -0.0555
     20 C         124.8650  150.5497  146.0674 C.3     1  UNL111     -0.0555
     21 C         125.8349  151.5948  146.6560 C.3     1  UNL111     -0.0586
     22 C         117.8348  150.9447  147.2992 C.ar    1  UNL111     -0.0627
     23 C         116.0212  152.1349  146.2487 C.ar    1  UNL111      0.0345
     24 C         116.4987  151.0049  146.9003 C.ar    1  UNL111     -0.0298
     25 C         113.7864  151.3268  146.1222 C.3     1  UNL111      0.0293
     26 H         118.8900  154.4613  148.5363 H       1  UNL111      0.2430
     27 H         122.2758  153.5722  145.4719 H       1  UNL111      0.1366
     28 H         121.9524  153.0305  147.7422 H       1  UNL111      0.0966
     29 H         120.3853  154.9421  144.3683 H       1  UNL111      0.0527
     30 H         118.9427  154.0507  143.9565 H       1  UNL111      0.0527
     31 H         117.8890  155.8317  147.0810 H       1  UNL111      0.0400
     32 H         117.7313  155.8096  145.3338 H       1  UNL111      0.0400
     33 H         121.8338  155.5128  146.0050 H       1  UNL111      0.0498
     34 H         122.0644  155.5692  147.7467 H       1  UNL111      0.0498
     35 H         119.9892  151.9167  144.6404 H       1  UNL111      0.0742
     36 H         121.1164  152.8176  143.6118 H       1  UNL111      0.0742
     37 H         120.1104  151.8866  148.6308 H       1  UNL111      0.0629
     38 H         120.5343  150.8979  147.2459 H       1  UNL111      0.0629
     39 H         118.8211  157.8619  146.1840 H       1  UNL111      0.0332
     40 H         119.7979  157.0020  145.0112 H       1  UNL111      0.0332
     41 H         121.2437  157.7198  146.8197 H       1  UNL111      0.0345
     42 H         120.1633  157.0592  148.0374 H       1  UNL111      0.0345
     43 H         122.9004  151.5974  144.4566 H       1  UNL111      0.0745
     44 H         121.9087  150.6691  145.5888 H       1  UNL111      0.0745
     45 H         123.3831  151.3354  147.4865 H       1  UNL111      0.0513
     46 H         116.4748  154.0627  145.4789 H       1  UNL111      0.1130
     47 H         124.6591  153.4534  147.0976 H       1  UNL111      0.0361
     48 H         124.8506  153.1062  145.3602 H       1  UNL111      0.0361
     49 H         124.9927  150.3947  144.9895 H       1  UNL111      0.0361
     50 H         124.8579  149.5774  146.5668 H       1  UNL111      0.0361
     51 H         126.0347  151.4589  147.7252 H       1  UNL111      0.0330
     52 H         126.7836  151.7161  146.1276 H       1  UNL111      0.0330
     53 H         118.1832  150.0498  147.8139 H       1  UNL111      0.0933
     54 H         115.8595  150.1531  147.1119 H       1  UNL111      0.1105
     55 H         112.8168  151.6565  145.7370 H       1  UNL111      0.1069
     56 H         113.6927  151.2104  147.2071 H       1  UNL111      0.1069
     57 H         114.0305  150.3739  145.6416 H       1  UNL111      0.1069
@<TRIPOS>UNITY_ATOM_ATTR
3 1
charge 1
@<TRIPOS>BOND
     1     1     5    1
     2     2    23    1
     3     2    25    1
     4     3     6    1
     5     3    11    1
     6     3    16    1
     7     4     5    1
     8     4     7    1
     9     4     8    1
    10     4    10    1
    11     5     6    1
    12     5     9    1
    13     6    12    1
    14     7    11    1
    15     8    13    1
    16     9    14    1
    17    10    15   ar
    18    10    18   ar
    19    12    15    1
    20    13    14    1
    21    15    22   ar
    22    16    17    1
    23    17    19    1
    24    17    20    1
    25    18    23   ar
    26    19    21    1
    27    20    21    1
    28    22    24   ar
    29    23    24   ar
    30     1    26    1
    31     3    27    1
    32     6    28    1
    33     7    29    1
    34     7    30    1
    35     8    31    1
    36     8    32    1
    37     9    33    1
    38     9    34    1
    39    11    35    1
    40    11    36    1
    41    12    37    1
    42    12    38    1
    43    13    39    1
    44    13    40    1
    45    14    41    1
    46    14    42    1
    47    16    43    1
    48    16    44    1
    49    17    45    1
    50    18    46    1
    51    19    47    1
    52    19    48    1
    53    20    49    1
    54    20    50    1
    55    21    51    1
    56    21    52    1
    57    22    53    1
    58    24    54    1
    59    25    55    1
    60    25    56    1
    61    25    57    1
@<TRIPOS>MOLECULE
138395412
 63 68 0 0 0
SMALL
GASTEIGER

@<TRIPOS>ATOM
      1 O         121.3032  151.0158  146.4435 O.3     1  UNL111     -0.4384
      2 O         117.0215  149.7801  146.8120 O.3     1  UNL111     -0.4170
      3 O         116.8201  151.8979  145.8425 O.3     1  UNL111     -0.4170
      4 O         115.9699  155.9645  147.4609 O.3     1  UNL111     -0.5835
      5 N         122.5781  153.1132  146.5493 N.4     1  UNL111      0.4307
      6 C         119.5594  152.6206  147.1407 C.3     1  UNL111      0.0294
      7 C         120.4377  152.1035  146.0027 C.3     1  UNL111      0.0354
      8 C         121.3243  153.3663  145.8369 C.3     1  UNL111     -0.0007
      9 C         118.5358  151.5186  147.5294 C.3     1  UNL111      0.0151
     10 C         120.5788  152.8938  148.3600 C.3     1  UNL111     -0.0310
     11 C         119.6580  151.5688  144.7881 C.3     1  UNL111     -0.0106
     12 C         117.7429  150.9289  146.3440 C.3     1  UNL111      0.0835
     13 C         118.8756  153.9587  146.6004 C.ar    1  UNL111     -0.0362
     14 C         122.1670  153.0210  148.0746 C.3     1  UNL111     -0.0350
     15 C         118.6592  150.4795  145.1993 C.3     1  UNL111      0.0019
     16 C         120.7913  154.3403  144.8258 C.3     1  UNL111     -0.0178
     17 C         119.4018  154.6934  145.4549 C.ar    1  UNL111     -0.0582
     18 C         123.7269  154.0144  146.2362 C.3     1  UNL111     -0.0378
     19 C         125.0284  153.5103  146.8280 C.3     1  UNL111     -0.0514
     20 C         117.7359  154.4693  147.2351 C.ar    1  UNL111     -0.0216
     21 C         125.6513  152.2427  146.1829 C.3     1  UNL111     -0.0555
     22 C         126.3080  154.2604  146.3715 C.3     1  UNL111     -0.0555
     23 C         118.7225  155.8124  144.9672 C.ar    1  UNL111     -0.0627
     24 C         127.0302  152.8981  146.3999 C.3     1  UNL111     -0.0586
     25 C         115.6577  150.2035  146.8759 C.3     1  UNL111      0.0392
     26 C         115.5625  151.2242  145.7764 C.3     1  UNL111      0.0392
     27 C         117.0758  155.6018  146.7399 C.ar    1  UNL111      0.0346
     28 C         117.5610  156.2556  145.6046 C.ar    1  UNL111     -0.0298
     29 C         115.2179  157.0729  146.9806 C.3     1  UNL111      0.0293
     30 H         120.7730  150.2067  146.5815 H       1  UNL111      0.2431
     31 H         122.8157  152.1354  146.2993 H       1  UNL111      0.1366
     32 H         121.1174  154.1324  146.5937 H       1  UNL111      0.0967
     33 H         117.8397  151.8888  148.2910 H       1  UNL111      0.0666
     34 H         119.0646  150.6885  148.0188 H       1  UNL111      0.0666
     35 H         120.4771  152.0913  149.1024 H       1  UNL111      0.0532
     36 H         120.2646  153.8055  148.8854 H       1  UNL111      0.0532
     37 H         120.3578  151.1412  144.0596 H       1  UNL111      0.0539
     38 H         119.0976  152.3481  144.2645 H       1  UNL111      0.0539
     39 H         122.5443  153.9283  148.5589 H       1  UNL111      0.0742
     40 H         122.7019  152.1525  148.4733 H       1  UNL111      0.0742
     41 H         119.1860  149.5594  145.4790 H       1  UNL111      0.0612
     42 H         118.0554  150.2117  144.3226 H       1  UNL111      0.0612
     43 H         120.6757  153.9153  143.8256 H       1  UNL111      0.0629
     44 H         121.4089  155.2438  144.7623 H       1  UNL111      0.0629
     45 H         123.4757  155.0096  146.6195 H       1  UNL111      0.0745
     46 H         123.7906  154.0705  145.1436 H       1  UNL111      0.0745
     47 H         124.9815  153.4359  147.9240 H       1  UNL111      0.0513
     48 H         117.3166  153.9887  148.1153 H       1  UNL111      0.1130
     49 H         125.3973  152.0976  145.1262 H       1  UNL111      0.0361
     50 H         125.4830  151.3058  146.7202 H       1  UNL111      0.0361
     51 H         126.6901  155.0121  147.0671 H       1  UNL111      0.0361
     52 H         126.2460  154.7019  145.3698 H       1  UNL111      0.0361
     53 H         119.0978  156.3656  144.1088 H       1  UNL111      0.0933
     54 H         127.7659  152.7331  145.6091 H       1  UNL111      0.0330
     55 H         127.4846  152.6595  147.3683 H       1  UNL111      0.0330
     56 H         115.4872  150.6533  147.8599 H       1  UNL111      0.1029
     57 H         114.9819  149.3553  146.7429 H       1  UNL111      0.1029
     58 H         115.4826  150.7503  144.7923 H       1  UNL111      0.1029
     59 H         114.7381  151.9294  145.9069 H       1  UNL111      0.1029
     60 H         117.0639  157.1325  145.2003 H       1  UNL111      0.1105
     61 H         114.3636  157.2124  147.6500 H       1  UNL111      0.1069
     62 H         114.8267  156.8796  145.9763 H       1  UNL111      0.1069
     63 H         115.8131  157.9917  147.0041 H       1  UNL111      0.1069
@<TRIPOS>UNITY_ATOM_ATTR
5 1
charge 1
@<TRIPOS>BOND
     1     1     7    1
     2     2    12    1
     3     2    25    1
     4     3    12    1
     5     3    26    1
     6     4    27    1
     7     4    29    1
     8     5     8    1
     9     5    14    1
    10     5    18    1
    11     6     7    1
    12     6     9    1
    13     6    10    1
    14     6    13    1
    15     7     8    1
    16     7    11    1
    17     8    16    1
    18     9    12    1
    19    10    14    1
    20    11    15    1
    21    12    15    1
    22    13    17   ar
    23    13    20   ar
    24    16    17    1
    25    17    23   ar
    26    18    19    1
    27    19    21    1
    28    19    22    1
    29    20    27   ar
    30    21    24    1
    31    22    24    1
    32    23    28   ar
    33    25    26    1
    34    27    28   ar
    35     1    30    1
    36     5    31    1
    37     8    32    1
    38     9    33    1
    39     9    34    1
    40    10    35    1
    41    10    36    1
    42    11    37    1
    43    11    38    1
    44    14    39    1
    45    14    40    1
    46    15    41    1
    47    15    42    1
    48    16    43    1
    49    16    44    1
    50    18    45    1
    51    18    46    1
    52    19    47    1
    53    20    48    1
    54    21    49    1
    55    21    50    1
    56    22    51    1
    57    22    52    1
    58    23    53    1
    59    24    54    1
    60    24    55    1
    61    25    56    1
    62    25    57    1
    63    26    58    1
    64    26    59    1
    65    28    60    1
    66    29    61    1
    67    29    62    1
    68    29    63    1
@<TRIPOS>MOLECULE
131707803
 53 57 0 0 0
SMALL
GASTEIGER

@<TRIPOS>ATOM
      1 O         120.8183  150.9254  146.3648 O.3     1  UNL111     -0.4382
      2 O         116.1059  150.5034  146.4476 O.2     1  UNL111     -0.4229
      3 O         115.0219  155.4096  147.3418 O.2     1  UNL111     -0.5646
      4 N         121.9788  153.1098  146.5881 N.4     1  UNL111      0.4307
      5 C         119.0096  152.3828  147.1958 C.3     1  UNL111      0.0331
      6 C         119.8917  151.9869  146.0096 C.3     1  UNL111      0.0365
      7 C         120.6959  153.3182  145.9154 C.3     1  UNL111     -0.0005
      8 C         120.0242  152.7004  148.4059 C.3     1  UNL111     -0.0304
      9 C         119.1012  151.4906  144.7782 C.3     1  UNL111     -0.0069
     10 C         118.0992  151.1988  147.5731 C.3     1  UNL111      0.0362
     11 C         118.1913  153.6647  146.6940 C.3     1  UNL111     -0.0357
     12 C         121.6058  152.8430  148.1034 C.3     1  UNL111     -0.0349
     13 C         120.0956  154.3111  144.9653 C.3     1  UNL111     -0.0177
     14 C         118.6768  154.5116  145.5989 C.3     1  UNL111     -0.0582
     15 C         123.0372  154.1414  146.3553 C.3     1  UNL111     -0.0378
     16 C         118.1081  150.3779  145.1291 C.3     1  UNL111      0.0231
     17 C         124.3997  153.6775  146.8316 C.3     1  UNL111     -0.0514
     18 C         117.3122  150.7173  146.3720 C.2     1  UNL111      0.0822
     19 C         125.0975  152.5761  145.9883 C.3     1  UNL111     -0.0555
     20 C         125.5899  154.5971  146.4503 C.3     1  UNL111     -0.0555
     21 C         116.9633  153.9934  147.2848 C.3     1  UNL111     -0.0225
     22 C         126.4245  153.3161  146.2500 C.3     1  UNL111     -0.0586
     23 C         117.9056  155.5818  145.1370 C.3     1  UNL111     -0.0629
     24 C         116.2269  155.0739  146.7978 C.3     1  UNL111      0.0345
     25 C         116.6817  155.8564  145.7397 C.3     1  UNL111     -0.0309
     26 H         120.3912  150.0515  146.2756 H       1  UNL111      0.2431
     27 H         114.7267  154.7075  147.9453 H       1  UNL111      0.3342
     28 H         122.3062  152.1890  146.2456 H       1  UNL111      0.1366
     29 H         120.4442  154.0229  146.7177 H       1  UNL111      0.0967
     30 H         119.9329  151.9229  149.1756 H       1  UNL111      0.0533
     31 H         119.6992  153.6268  148.8990 H       1  UNL111      0.0533
     32 H         119.7982  151.1098  144.0215 H       1  UNL111      0.0548
     33 H         118.5271  152.2854  144.2951 H       1  UNL111      0.0548
     34 H         117.4063  151.4560  148.3802 H       1  UNL111      0.0729
     35 H         118.6872  150.3448  147.9317 H       1  UNL111      0.0729
     36 H         122.0091  153.6778  148.6865 H       1  UNL111      0.0742
     37 H         122.1363  151.9260  148.3808 H       1  UNL111      0.0742
     38 H         120.0217  153.9425  143.9389 H       1  UNL111      0.0629
     39 H         120.6377  155.2640  144.9662 H       1  UNL111      0.0629
     40 H         122.7229  155.0551  146.8718 H       1  UNL111      0.0745
     41 H         123.0494  154.3399  145.2776 H       1  UNL111      0.0745
     42 H         118.6212  149.4270  145.3058 H       1  UNL111      0.0674
     43 H         117.4165  150.2280  144.2929 H       1  UNL111      0.0674
     44 H         124.4058  153.4427  147.9057 H       1  UNL111      0.0513
     45 H         124.8074  152.5595  144.9310 H       1  UNL111      0.0361
     46 H         125.0349  151.5611  146.3890 H       1  UNL111      0.0361
     47 H         125.9397  155.2700  147.2376 H       1  UNL111      0.0361
     48 H         125.4450  155.1734  145.5289 H       1  UNL111      0.0361
     49 H         116.5614  153.4214  148.1151 H       1  UNL111      0.1128
     50 H         127.1314  153.3349  145.4169 H       1  UNL111      0.0330
     51 H         126.9449  152.9821  147.1548 H       1  UNL111      0.0330
     52 H         118.2493  156.2185  144.3245 H       1  UNL111      0.0932
     53 H         116.0756  156.6898  145.3903 H       1  UNL111      0.1103
@<TRIPOS>UNITY_ATOM_ATTR
4 1
charge 1
@<TRIPOS>BOND
     1     1     6    1
     2     2    18    2
     3     3    24    1
     4     4     7    1
     5     4    12    1
     6     4    15    1
     7     5     6    1
     8     5     8    1
     9     5    10    1
    10     5    11    1
    11     6     7    1
    12     6     9    1
    13     7    13    1
    14     8    12    1
    15     9    16    1
    16    10    18    1
    17    11    14   ar
    18    11    21   ar
    19    13    14    1
    20    14    23   ar
    21    15    17    1
    22    16    18    1
    23    17    19    1
    24    17    20    1
    25    19    22    1
    26    20    22    1
    27    21    24   ar
    28    23    25   ar
    29    24    25   ar
    30     1    26    1
    31     3    27    1
    32     4    28    1
    33     7    29    1
    34     8    30    1
    35     8    31    1
    36     9    32    1
    37     9    33    1
    38    10    34    1
    39    10    35    1
    40    12    36    1
    41    12    37    1
    42    13    38    1
    43    13    39    1
    44    15    40    1
    45    15    41    1
    46    16    42    1
    47    16    43    1
    48    17    44    1
    49    19    45    1
    50    19    46    1
    51    20    47    1
    52    20    48    1
    53    21    49    1
    54    22    50    1
    55    22    51    1
    56    23    52    1
    57    25    53    1
