@<TRIPOS>MOLECULE
5361092
 54 58 0 0 0
SMALL
GASTEIGER

@<TRIPOS>ATOM
      1 O         120.9558  155.3325  146.0435 O.3     1  UNL111     -0.4392
      2 O         114.7428  151.2703  145.8345 O.3     1  UNL111     -0.5646
      3 N         121.5242  152.7784  145.6685 N.4     1  UNL111      0.4307
      4 C         118.8814  154.0375  145.7012 C.3     1  UNL111      0.0141
      5 C         120.0155  154.4371  146.6989 C.3     1  UNL111      0.0296
      6 C         120.8526  153.1761  147.0047 C.3     1  UNL111     -0.0014
      7 C         119.5292  153.5570  144.3724 C.3     1  UNL111     -0.0340
      8 C         118.0315  155.3085  145.4112 C.3     1  UNL111     -0.0390
      9 C         119.4847  155.1203  147.9746 C.3     1  UNL111     -0.0262
     10 C         118.0550  152.8495  146.2373 C.ar    1  UNL111     -0.0397
     11 C         120.5488  152.4344  144.5658 C.3     1  UNL111     -0.0353
     12 C         120.0437  152.0494  147.6430 C.3     1  UNL111     -0.0179
     13 C         117.4653  155.9441  146.6825 C.3     1  UNL111     -0.0566
     14 C         118.5647  156.3049  147.6750 C.3     1  UNL111     -0.0524
     15 C         118.6339  151.9132  147.1246 C.ar    1  UNL111     -0.0587
     16 C         122.6534  151.7767  145.7568 C.3     1  UNL111     -0.0379
     17 C         123.7836  152.1873  146.6806 C.3     1  UNL111     -0.0514
     18 C         124.5850  153.4627  146.3035 C.3     1  UNL111     -0.0555
     19 C         125.1161  151.4101  146.5020 C.3     1  UNL111     -0.0555
     20 C         116.7387  152.6126  145.7912 C.ar    1  UNL111     -0.0230
     21 C         125.8445  152.7336  146.8134 C.3     1  UNL111     -0.0586
     22 C         117.8842  150.8128  147.5767 C.ar    1  UNL111     -0.0630
     23 C         116.0177  151.5116  146.2483 C.ar    1  UNL111      0.0345
     24 C         116.5798  150.6140  147.1389 C.ar    1  UNL111     -0.0309
     25 H         120.5851  156.2363  146.0382 H       1  UNL111      0.2430
     26 H         114.4282  152.0060  145.2841 H       1  UNL111      0.3342
     27 H         121.9476  153.6793  145.3768 H       1  UNL111      0.1366
     28 H         121.6834  153.4545  147.6615 H       1  UNL111      0.0966
     29 H         120.0323  154.3982  143.8769 H       1  UNL111      0.0527
     30 H         118.7608  153.2169  143.6659 H       1  UNL111      0.0527
     31 H         117.2149  155.1037  144.7110 H       1  UNL111      0.0400
     32 H         118.6525  156.0588  144.9032 H       1  UNL111      0.0400
     33 H         120.3259  155.4836  148.5778 H       1  UNL111      0.0498
     34 H         118.9303  154.4100  148.5977 H       1  UNL111      0.0498
     35 H         120.0857  151.4741  144.8118 H       1  UNL111      0.0742
     36 H         121.1306  152.3068  143.6460 H       1  UNL111      0.0742
     37 H         119.9713  152.2504  148.7202 H       1  UNL111      0.0629
     38 H         120.5663  151.0923  147.5410 H       1  UNL111      0.0629
     39 H         116.7498  155.2649  147.1597 H       1  UNL111      0.0332
     40 H         116.9066  156.8494  146.4179 H       1  UNL111      0.0332
     41 H         119.1506  157.1431  147.2803 H       1  UNL111      0.0345
     42 H         118.1132  156.6606  148.6086 H       1  UNL111      0.0345
     43 H         123.0301  151.6585  144.7339 H       1  UNL111      0.0745
     44 H         122.2203  150.8197  146.0651 H       1  UNL111      0.0745
     45 H         123.4732  152.1859  147.7350 H       1  UNL111      0.0513
     46 H         124.3119  154.3713  146.8463 H       1  UNL111      0.0361
     47 H         124.6105  153.6832  145.2298 H       1  UNL111      0.0361
     48 H         125.2987  151.0401  145.4862 H       1  UNL111      0.0361
     49 H         125.2897  150.5969  147.2116 H       1  UNL111      0.0361
     50 H         116.2624  153.2748  145.0752 H       1  UNL111      0.1128
     51 H         126.0423  152.8881  147.8803 H       1  UNL111      0.0330
     52 H         126.7622  152.9166  146.2493 H       1  UNL111      0.0330
     53 H         118.3116  150.0966  148.2771 H       1  UNL111      0.0932
     54 H         116.0034  149.7614  147.4894 H       1  UNL111      0.1103
@<TRIPOS>UNITY_ATOM_ATTR
3 1
charge 1
@<TRIPOS>BOND
     1     1     5    1
     2     2    23    1
     3     3     6    1
     4     3    11    1
     5     3    16    1
     6     4     5    1
     7     4     7    1
     8     4     8    1
     9     4    10    1
    10     5     6    1
    11     5     9    1
    12     6    12    1
    13     7    11    1
    14     8    13    1
    15     9    14    1
    16    10    15   ar
    17    10    20   ar
    18    12    15    1
    19    13    14    1
    20    15    22   ar
    21    16    17    1
    22    17    18    1
    23    17    19    1
    24    18    21    1
    25    19    21    1
    26    20    23   ar
    27    22    24   ar
    28    23    24   ar
    29     1    25    1
    30     2    26    1
    31     3    27    1
    32     6    28    1
    33     7    29    1
    34     7    30    1
    35     8    31    1
    36     8    32    1
    37     9    33    1
    38     9    34    1
    39    11    35    1
    40    11    36    1
    41    12    37    1
    42    12    38    1
    43    13    39    1
    44    13    40    1
    45    14    41    1
    46    14    42    1
    47    16    43    1
    48    16    44    1
    49    17    45    1
    50    18    46    1
    51    18    47    1
    52    19    48    1
    53    19    49    1
    54    20    50    1
    55    21    51    1
    56    21    52    1
    57    22    53    1
    58    24    54    1
@<TRIPOS>MOLECULE
129318767
 54 58 0 0 0
SMALL
GASTEIGER

@<TRIPOS>ATOM
      1 O         120.4025  150.4209  146.5863 O.3     1  UNL1111    -0.4394
      2 O         122.1505  151.8828  147.6571 O.co2   1  UNL1111    -0.7534
      3 O         114.9986  155.4802  146.9862 O.2     1  UNL1111    -0.5646
      4 N         121.4878  153.0217  147.2237 N.3     1  UNL1111     0.4060
      5 C         118.6530  152.0955  147.0442 C.3     1  UNL1111     0.0137
      6 C         119.7450  151.5881  146.0509 C.3     1  UNL1111     0.0268
      7 C         120.7843  152.7223  145.8655 C.3     1  UNL1111    -0.0197
      8 C         119.3227  152.4018  148.4106 C.3     1  UNL1111    -0.0367
      9 C         120.4713  153.4029  148.2902 C.3     1  UNL1111    -0.0538
     10 C         117.6131  150.9541  147.2443 C.3     1  UNL1111    -0.0390
     11 C         119.1259  151.1047  144.7177 C.3     1  UNL1111    -0.0264
     12 C         120.1395  153.9369  145.1854 C.3     1  UNL1111    -0.0206
     13 C         118.0289  153.4215  146.5471 C.3     1  UNL1111    -0.0397
     14 C         122.5222  154.1312  147.1261 C.3     1  UNL1111    -0.0563
     15 C         116.9965  150.4737  145.9289 C.3     1  UNL1111    -0.0566
     16 C         118.0626  150.0257  144.9353 C.3     1  UNL1111    -0.0524
     17 C         118.7577  154.2824  145.6926 C.3     1  UNL1111    -0.0589
     18 C         123.6120  153.9601  146.0835 C.3     1  UNL1111    -0.0541
     19 C         124.7495  155.0164  146.1465 C.3     1  UNL1111    -0.0557
     20 C         124.7161  152.8979  146.3424 C.3     1  UNL1111    -0.0557
     21 C         116.7628  153.8464  146.9955 C.3     1  UNL1111    -0.0230
     22 C         125.7182  153.8934  145.7248 C.3     1  UNL1111    -0.0586
     23 C         118.1908  155.4967  145.2672 C.3     1  UNL1111    -0.0630
     24 C         116.2260  155.0590  146.5677 C.3     1  UNL1111     0.0345
     25 C         116.9276  155.8827  145.7039 C.3     1  UNL1111    -0.0309
     26 H         121.1786  150.7509  147.1141 H       1  UNL1111     0.2430
     27 H         114.6051  154.7923  147.5477 H       1  UNL1111     0.3342
     28 H         121.6065  152.3474  145.2432 H       1  UNL1111     0.0933
     29 H         119.7068  151.4748  148.8554 H       1  UNL1111     0.0525
     30 H         118.5872  152.7938  149.1250 H       1  UNL1111     0.0525
     31 H         120.1175  154.4113  148.0559 H       1  UNL1111     0.0708
     32 H         121.0258  153.4529  149.2352 H       1  UNL1111     0.0708
     33 H         116.8151  151.2445  147.9356 H       1  UNL1111     0.0400
     34 H         118.1013  150.0942  147.7234 H       1  UNL1111     0.0400
     35 H         119.9122  150.6856  144.0771 H       1  UNL1111     0.0498
     36 H         118.6652  151.9243  144.1574 H       1  UNL1111     0.0498
     37 H         120.0490  153.7270  144.1115 H       1  UNL1111     0.0627
     38 H         120.7785  154.8208  145.2608 H       1  UNL1111     0.0627
     39 H         122.9629  154.1939  148.1301 H       1  UNL1111     0.0712
     40 H         121.9730  155.0632  146.9604 H       1  UNL1111     0.0712
     41 H         116.3905  151.2703  145.4823 H       1  UNL1111     0.0332
     42 H         116.3153  149.6388  146.1303 H       1  UNL1111     0.0332
     43 H         118.5360  149.1053  145.2984 H       1  UNL1111     0.0345
     44 H         117.5914  149.7767  143.9775 H       1  UNL1111     0.0345
     45 H         123.2054  153.8959  145.0649 H       1  UNL1111     0.0511
     46 H         124.9503  155.4136  147.1485 H       1  UNL1111     0.0361
     47 H         124.6603  155.8510  145.4461 H       1  UNL1111     0.0361
     48 H         124.5996  151.9520  145.8072 H       1  UNL1111     0.0361
     49 H         124.9084  152.6880  147.4012 H       1  UNL1111     0.0361
     50 H         116.1919  153.2392  147.6899 H       1  UNL1111     0.1128
     51 H         126.7084  153.9209  146.1859 H       1  UNL1111     0.0330
     52 H         125.8304  153.7910  144.6394 H       1  UNL1111     0.0330
     53 H         118.7354  156.1538  144.5919 H       1  UNL1111     0.0932
     54 H         116.4950  156.8235  145.3759 H       1  UNL1111     0.1103
@<TRIPOS>UNITY_ATOM_ATTR
2 1
charge -1
4 1
charge 1
@<TRIPOS>BOND
     1     1     6    1
     2     2     4    1
     3     3    24    1
     4     4     7    1
     5     4     9    1
     6     4    14    1
     7     5     6    1
     8     5     8    1
     9     5    10    1
    10     5    13    1
    11     6     7    1
    12     6    11    1
    13     7    12    1
    14     8     9    1
    15    10    15    1
    16    11    16    1
    17    12    17    1
    18    13    17   ar
    19    13    21   ar
    20    14    18    1
    21    15    16    1
    22    17    23   ar
    23    18    19    1
    24    18    20    1
    25    19    22    1
    26    20    22    1
    27    21    24   ar
    28    23    25   ar
    29    24    25   ar
    30     1    26    1
    31     3    27    1
    32     7    28    1
    33     8    29    1
    34     8    30    1
    35     9    31    1
    36     9    32    1
    37    10    33    1
    38    10    34    1
    39    11    35    1
    40    11    36    1
    41    12    37    1
    42    12    38    1
    43    14    39    1
    44    14    40    1
    45    15    41    1
    46    15    42    1
    47    16    43    1
    48    16    44    1
    49    18    45    1
    50    19    46    1
    51    19    47    1
    52    20    48    1
    53    20    49    1
    54    21    50    1
    55    22    51    1
    56    22    52    1
    57    23    53    1
    58    25    54    1
@<TRIPOS>MOLECULE
13080261
 57 61 0 0 0
SMALL
GASTEIGER

@<TRIPOS>ATOM
      1 O         121.4204  155.3022  146.0084 O.3     1  UNL111     -0.4392
      2 O         114.8639  151.9922  145.8179 O.3     1  UNL111     -0.5835
      3 N         121.7391  152.7011  145.6429 N.4     1  UNL111      0.4307
      4 C         119.2278  154.2035  145.7130 C.3     1  UNL111      0.0141
      5 C         120.4123  154.5024  146.6862 C.3     1  UNL111      0.0296
      6 C         121.1328  153.1703  146.9872 C.3     1  UNL111     -0.0014
      7 C         119.8036  153.6616  144.3754 C.3     1  UNL111     -0.0340
      8 C         118.4894  155.5442  145.4311 C.3     1  UNL111     -0.0389
      9 C         119.9727  155.2403  147.9661 C.3     1  UNL111     -0.0262
     10 C         118.3104  153.0979  146.2740 C.ar    1  UNL111     -0.0395
     11 C         120.7163  152.4495  144.5570 C.3     1  UNL111     -0.0353
     12 C         120.2355  152.1278  147.6510 C.3     1  UNL111     -0.0178
     13 C         118.0109  156.2363  146.7087 C.3     1  UNL111     -0.0566
     14 C         119.1602  156.5026  147.6740 C.3     1  UNL111     -0.0524
     15 C         118.8099  152.1227  147.1608 C.ar    1  UNL111     -0.0586
     16 C         122.7632  151.5916  145.7170 C.3     1  UNL111     -0.0379
     17 C         123.9144  151.8569  146.6671 C.3     1  UNL111     -0.0514
     18 C         116.9726  152.9749  145.8515 C.ar    1  UNL111     -0.0220
     19 C         124.8444  153.0589  146.3489 C.3     1  UNL111     -0.0555
     20 C         125.1665  150.9581  146.4771 C.3     1  UNL111     -0.0555
     21 C         126.0158  152.1903  146.8508 C.3     1  UNL111     -0.0586
     22 C         117.9615  151.1088  147.6374 C.ar    1  UNL111     -0.0627
     23 C         116.1329  151.9595  146.3235 C.ar    1  UNL111      0.0345
     24 C         116.6317  151.0287  147.2244 C.ar    1  UNL111     -0.0298
     25 C         113.9424  151.0291  146.3173 C.3     1  UNL111      0.0293
     26 H         121.1226  156.2322  145.9811 H       1  UNL111      0.2430
     27 H         122.2443  153.5546  145.3391 H       1  UNL111      0.1366
     28 H         121.9984  153.3752  147.6260 H       1  UNL111      0.0966
     29 H         120.3739  154.4505  143.8670 H       1  UNL111      0.0527
     30 H         118.9941  153.3923  143.6843 H       1  UNL111      0.0527
     31 H         117.6423  155.4094  144.7504 H       1  UNL111      0.0400
     32 H         119.1639  156.2322  144.9036 H       1  UNL111      0.0400
     33 H         120.8559  155.5285  148.5496 H       1  UNL111      0.0498
     34 H         119.3677  154.5886  148.6061 H       1  UNL111      0.0498
     35 H         120.1683  151.5381  144.8148 H       1  UNL111      0.0742
     36 H         121.2685  152.2643  143.6288 H       1  UNL111      0.0742
     37 H         120.2046  152.3410  148.7278 H       1  UNL111      0.0629
     38 H         120.6640  151.1253  147.5453 H       1  UNL111      0.0629
     39 H         117.2478  155.6274  147.2067 H       1  UNL111      0.0332
     40 H         117.5303  157.1866  146.4485 H       1  UNL111      0.0332
     41 H         119.8124  157.2795  147.2583 H       1  UNL111      0.0345
     42 H         118.7639  156.9063  148.6131 H       1  UNL111      0.0345
     43 H         123.1404  151.4653  144.6952 H       1  UNL111      0.0745
     44 H         122.2322  150.6745  145.9923 H       1  UNL111      0.0745
     45 H         123.5879  151.8483  147.7168 H       1  UNL111      0.0513
     46 H         116.5407  153.6690  145.1338 H       1  UNL111      0.1130
     47 H         124.6526  153.9704  146.9209 H       1  UNL111      0.0361
     48 H         124.9111  153.3133  145.2846 H       1  UNL111      0.0361
     49 H         125.3301  150.6108  145.4501 H       1  UNL111      0.0361
     50 H         125.2460  150.1053  147.1563 H       1  UNL111      0.0361
     51 H         126.2065  152.2849  147.9260 H       1  UNL111      0.0330
     52 H         126.9582  152.3019  146.3093 H       1  UNL111      0.0330
     53 H         118.3313  150.3638  148.3414 H       1  UNL111      0.0933
     54 H         116.0168  150.2260  147.6192 H       1  UNL111      0.1105
     55 H         112.9748  151.2139  145.8410 H       1  UNL111      0.1069
     56 H         113.8080  151.1347  147.3989 H       1  UNL111      0.1069
     57 H         114.2555  150.0133  146.0546 H       1  UNL111      0.1069
@<TRIPOS>UNITY_ATOM_ATTR
3 1
charge 1
@<TRIPOS>BOND
     1     1     5    1
     2     2    23    1
     3     2    25    1
     4     3     6    1
     5     3    11    1
     6     3    16    1
     7     4     5    1
     8     4     7    1
     9     4     8    1
    10     4    10    1
    11     5     6    1
    12     5     9    1
    13     6    12    1
    14     7    11    1
    15     8    13    1
    16     9    14    1
    17    10    15   ar
    18    10    18   ar
    19    12    15    1
    20    13    14    1
    21    15    22   ar
    22    16    17    1
    23    17    19    1
    24    17    20    1
    25    18    23   ar
    26    19    21    1
    27    20    21    1
    28    22    24   ar
    29    23    24   ar
    30     1    26    1
    31     3    27    1
    32     6    28    1
    33     7    29    1
    34     7    30    1
    35     8    31    1
    36     8    32    1
    37     9    33    1
    38     9    34    1
    39    11    35    1
    40    11    36    1
    41    12    37    1
    42    12    38    1
    43    13    39    1
    44    13    40    1
    45    14    41    1
    46    14    42    1
    47    16    43    1
    48    16    44    1
    49    17    45    1
    50    18    46    1
    51    19    47    1
    52    19    48    1
    53    20    49    1
    54    20    50    1
    55    21    51    1
    56    21    52    1
    57    22    53    1
    58    24    54    1
    59    25    55    1
    60    25    56    1
    61    25    57    1
@<TRIPOS>MOLECULE
57257006
 56 60 0 0 0
SMALL
GASTEIGER

@<TRIPOS>ATOM
      1 O         121.2921  150.8163  146.5330 O.3     1  UNL111     -0.4382
      2 O         116.6117  150.0155  146.7639 O.2     1  UNL111     -0.4229
      3 O         115.2917  154.9563  147.3894 O.2     1  UNL111     -0.5835
      4 N         121.9684  153.3825  146.4541 N.4     1  UNL111      0.4307
      5 C         119.3465  152.2379  147.0602 C.3     1  UNL111      0.0331
      6 C         120.2720  151.6607  145.9395 C.3     1  UNL111      0.0365
      7 C         121.0639  152.8379  145.3242 C.3     1  UNL111     -0.0005
      8 C         120.2304  152.8743  148.1714 C.3     1  UNL111     -0.0304
      9 C         119.4968  150.8531  144.8773 C.3     1  UNL111     -0.0069
     10 C         118.5590  151.0613  147.6870 C.3     1  UNL111      0.0362
     11 C         118.4537  153.3659  146.5077 C.3     1  UNL111     -0.0355
     12 C         121.2163  153.9186  147.6485 C.3     1  UNL111     -0.0349
     13 C         120.1766  153.9099  144.6931 C.3     1  UNL111     -0.0177
     14 C         118.8776  154.1556  145.4186 C.3     1  UNL111     -0.0581
     15 C         123.0677  154.3002  145.9666 C.3     1  UNL111     -0.0378
     16 C         118.6136  149.7605  145.4740 C.3     1  UNL111      0.0231
     17 C         124.3058  154.2391  146.8421 C.3     1  UNL111     -0.0514
     18 C         117.7995  150.2918  146.6300 C.2     1  UNL111      0.0822
     19 C         125.1153  152.9140  146.8184 C.3     1  UNL111     -0.0555
     20 C         125.5729  154.9172  146.2555 C.3     1  UNL111     -0.0555
     21 C         117.2341  153.7030  147.1251 C.3     1  UNL111     -0.0215
     22 C         126.3921  153.7747  146.8889 C.3     1  UNL111     -0.0586
     23 C         118.0664  155.2061  144.9566 C.3     1  UNL111     -0.0627
     24 C         116.4363  154.7596  146.6697 C.3     1  UNL111      0.0346
     25 C         116.8543  155.5065  145.5772 C.3     1  UNL111     -0.0298
     26 C         114.4085  155.9775  146.9392 C.3     1  UNL111      0.0293
     27 H         120.9658  149.9004  146.6255 H       1  UNL111      0.2431
     28 H         122.4248  152.5115  146.7837 H       1  UNL111      0.1366
     29 H         121.7698  152.4514  144.5779 H       1  UNL111      0.0967
     30 H         120.8021  152.0900  148.6859 H       1  UNL111      0.0533
     31 H         119.6046  153.3382  148.9454 H       1  UNL111      0.0533
     32 H         120.2029  150.3820  144.1824 H       1  UNL111      0.0548
     33 H         118.8578  151.5129  144.2800 H       1  UNL111      0.0548
     34 H         117.8632  151.3847  148.4669 H       1  UNL111      0.0729
     35 H         119.2369  150.3473  148.1723 H       1  UNL111      0.0729
     36 H         120.7291  154.8525  147.3525 H       1  UNL111      0.0742
     37 H         121.9509  154.1486  148.4263 H       1  UNL111      0.0742
     38 H         119.9214  153.5852  143.6756 H       1  UNL111      0.0629
     39 H         120.7250  154.8534  144.5923 H       1  UNL111      0.0629
     40 H         122.6558  155.3146  145.9308 H       1  UNL111      0.0745
     41 H         123.3120  153.9951  144.9431 H       1  UNL111      0.0745
     42 H         119.2128  148.9199  145.8393 H       1  UNL111      0.0674
     43 H         117.9358  149.3745  144.7051 H       1  UNL111      0.0674
     44 H         124.1091  154.5852  147.8663 H       1  UNL111      0.0513
     45 H         125.0235  152.3412  145.8880 H       1  UNL111      0.0361
     46 H         124.9500  152.2431  147.6655 H       1  UNL111      0.0361
     47 H         125.7915  155.9199  146.6319 H       1  UNL111      0.0361
     48 H         125.6185  154.9315  145.1601 H       1  UNL111      0.0361
     49 H         116.8629  153.1574  147.9907 H       1  UNL111      0.1131
     50 H         127.2406  153.4153  146.3016 H       1  UNL111      0.0330
     51 H         126.7264  153.9852  147.9111 H       1  UNL111      0.0330
     52 H         118.3732  155.8087  144.1021 H       1  UNL111      0.0933
     53 H         116.2649  156.3305  145.1871 H       1  UNL111      0.1105
     54 H         113.5378  155.9827  147.6017 H       1  UNL111      0.1069
     55 H         114.0547  155.7744  145.9230 H       1  UNL111      0.1069
     56 H         114.8825  156.9625  147.0035 H       1  UNL111      0.1069
@<TRIPOS>UNITY_ATOM_ATTR
4 1
charge 1
@<TRIPOS>BOND
     1     1     6    1
     2     2    18    2
     3     3    24    1
     4     3    26    1
     5     4     7    1
     6     4    12    1
     7     4    15    1
     8     5     6    1
     9     5     8    1
    10     5    10    1
    11     5    11    1
    12     6     7    1
    13     6     9    1
    14     7    13    1
    15     8    12    1
    16     9    16    1
    17    10    18    1
    18    11    14   ar
    19    11    21   ar
    20    13    14    1
    21    14    23   ar
    22    15    17    1
    23    16    18    1
    24    17    19    1
    25    17    20    1
    26    19    22    1
    27    20    22    1
    28    21    24   ar
    29    23    25   ar
    30    24    25   ar
    31     1    27    1
    32     4    28    1
    33     7    29    1
    34     8    30    1
    35     8    31    1
    36     9    32    1
    37     9    33    1
    38    10    34    1
    39    10    35    1
    40    12    36    1
    41    12    37    1
    42    13    38    1
    43    13    39    1
    44    15    40    1
    45    15    41    1
    46    16    42    1
    47    16    43    1
    48    17    44    1
    49    19    45    1
    50    19    46    1
    51    20    47    1
    52    20    48    1
    53    21    49    1
    54    22    50    1
    55    22    51    1
    56    23    52    1
    57    25    53    1
    58    26    54    1
    59    26    55    1
    60    26    56    1
@<TRIPOS>MOLECULE
71314360
 31 35 0 0 0
SMALL
GASTEIGER

@<TRIPOS>ATOM
      1 O         118.9631  150.4161  146.0085 O.3     1  UNL111     -0.3052
      2 O         124.5394  155.3604  145.6949 O.co2   1  UNL111     -0.8036
      3 N         117.8450  152.7899  146.0055 N.4     1  UNL111      0.4555
      4 C         120.8774  152.0416  145.4992 C.3     1  UNL111      0.0585
      5 C         119.7729  151.3259  146.5549 C.3     1  UNL111      0.1178
      6 C         118.8558  152.4803  147.0440 C.3     1  UNL111      0.0830
      7 C         120.0200  152.5999  144.4083 C.3     1  UNL111      0.0620
      8 C         121.9104  150.9552  145.0846 C.3     1  UNL111     -0.0306
      9 C         120.6137  150.6197  147.4957 C.3     1  UNL111      0.0460
     10 C         121.5825  153.2853  146.1521 C.2     1  UNL111     -0.0268
     11 C         118.6020  153.0347  144.7579 C.3     1  UNL111      0.0565
     12 C         119.6518  153.5661  147.5117 C.3     1  UNL111      0.0735
     13 C         122.7174  150.3831  146.2986 C.3     1  UNL111     -0.0526
     14 C         121.8880  149.9173  147.5250 C.3     1  UNL111     -0.0356
     15 C         120.9428  154.0322  147.1642 C.2     1  UNL111     -0.0157
     16 C         116.8436  153.7630  146.3529 C.3     1  UNL111      0.0484
     17 C         115.8587  154.7195  146.7005 C.3     1  UNL111      0.0310
     18 C         122.8020  153.7750  145.6672 C.2     1  UNL111     -0.0480
     19 C         114.5687  154.8344  146.0577 C.3     1  UNL111      0.0184
     20 C         114.5800  154.3973  147.2934 C.3     1  UNL111      0.0184
     21 C         113.1851  154.5040  146.6487 C.3     1  UNL111      0.0089
     22 C         121.5093  155.1728  147.6982 C.2     1  UNL111     -0.0169
     23 C         123.4326  154.9341  146.1572 C.2     1  UNL111     -0.0997
     24 C         122.7403  155.5921  147.1923 C.2     1  UNL111     -0.0412
     25 H         117.4537  151.8359  145.8461 H       1  UNL111      0.1698
     26 H         122.6187  151.3532  144.3469 H       1  UNL111      0.0412
     27 H         121.4002  150.1239  144.5808 H       1  UNL111      0.0412
     28 H         123.4194  151.1535  146.6413 H       1  UNL111      0.0338
     29 H         123.3453  149.5523  145.9541 H       1  UNL111      0.0338
     30 H         121.7169  148.8377  147.4547 H       1  UNL111      0.0392
     31 H         122.4401  150.1057  148.4505 H       1  UNL111      0.0392
@<TRIPOS>UNITY_ATOM_ATTR
2 1
charge -1
3 1
charge 1
@<TRIPOS>BOND
     1     1     5    1
     2     2    23    1
     3     3     6    1
     4     3    11    1
     5     3    16    1
     6     4     5    1
     7     4     7    1
     8     4     8    1
     9     4    10    1
    10     5     6    1
    11     5     9    1
    12     6    12    1
    13     7    11    1
    14     8    13    1
    15     9    14    1
    16    10    15    2
    17    10    18    1
    18    12    15    1
    19    13    14    1
    20    15    22    1
    21    16    17    1
    22    17    19    1
    23    17    20    1
    24    18    23    2
    25    19    21    1
    26    20    21    1
    27    22    24    2
    28    23    24    1
    29     3    25    1
    30     8    26    1
    31     8    27    1
    32    13    28    1
    33    13    29    1
    34    14    30    1
    35    14    31    1
@<TRIPOS>MOLECULE
57088644
 53 57 0 0 0
SMALL
GASTEIGER

@<TRIPOS>ATOM
      1 O         120.8215  150.8051  146.4456 O.3     1  UNL111     -0.4382
      2 O         116.0845  150.5849  146.7954 O.2     1  UNL111     -0.4229
      3 O         115.2691  155.6084  147.4448 O.2     1  UNL111     -0.5646
      4 N         121.7856  153.2772  146.4543 N.4     1  UNL111      0.4307
      5 C         119.0675  152.4092  147.0929 C.3     1  UNL111      0.0331
      6 C         119.8901  151.7850  145.9182 C.3     1  UNL111      0.0365
      7 C         120.7946  152.8939  145.3305 C.3     1  UNL111     -0.0005
      8 C         120.0442  152.9025  148.1990 C.3     1  UNL111     -0.0304
      9 C         118.9956  151.1184  144.8500 C.3     1  UNL111     -0.0069
     10 C         118.1825  151.2946  147.7002 C.3     1  UNL111      0.0362
     11 C         118.2783  153.6434  146.6114 C.3     1  UNL111     -0.0357
     12 C         121.1295  153.8489  147.6873 C.3     1  UNL111     -0.0349
     13 C         120.0205  154.0909  144.7813 C.3     1  UNL111     -0.0177
     14 C         118.7709  154.4404  145.5513 C.3     1  UNL111     -0.0582
     15 C         122.9757  154.0780  145.9720 C.3     1  UNL111     -0.0378
     16 C         118.0022  150.1131  145.4313 C.3     1  UNL111      0.0231
     17 C         124.2120  153.8493  146.8222 C.3     1  UNL111     -0.0514
     18 C         117.2970  150.6861  146.6381 C.2     1  UNL111      0.0822
     19 C         124.8614  152.4404  146.7507 C.3     1  UNL111     -0.0555
     20 C         125.5413  154.3913  146.2316 C.3     1  UNL111     -0.0555
     21 C         117.0937  154.0545  147.2544 C.3     1  UNL111     -0.0225
     22 C         126.2302  153.1455  146.8244 C.3     1  UNL111     -0.0586
     23 C         118.0726  155.5940  145.1528 C.3     1  UNL111     -0.0629
     24 C         116.4194  155.2011  146.8401 C.3     1  UNL111      0.0345
     25 C         116.9024  155.9744  145.7994 C.3     1  UNL111     -0.0309
     26 H         120.4248  149.9127  146.4298 H       1  UNL111      0.2431
     27 H         114.9328  154.9013  148.0208 H       1  UNL111      0.3342
     28 H         122.1432  152.3455  146.7362 H       1  UNL111      0.1366
     29 H         121.4305  152.4668  144.5446 H       1  UNL111      0.0967
     30 H         120.5367  152.0404  148.6692 H       1  UNL111      0.0533
     31 H         119.4929  153.4034  149.0058 H       1  UNL111      0.0533
     32 H         119.6220  150.5966  144.1159 H       1  UNL111      0.0548
     33 H         118.4252  151.8738  144.2982 H       1  UNL111      0.0548
     34 H         117.5633  151.6497  148.5296 H       1  UNL111      0.0729
     35 H         118.7933  150.4816  148.1131 H       1  UNL111      0.0729
     36 H         120.7451  154.8427  147.4393 H       1  UNL111      0.0742
     37 H         121.9033  153.9633  148.4524 H       1  UNL111      0.0742
     38 H         119.7091  153.8510  143.7559 H       1  UNL111      0.0629
     39 H         120.6686  154.9720  144.7133 H       1  UNL111      0.0629
     40 H         122.6826  155.1334  145.9728 H       1  UNL111      0.0745
     41 H         123.1673  153.7772  144.9360 H       1  UNL111      0.0745
     42 H         118.5048  149.1902  145.7391 H       1  UNL111      0.0674
     43 H         117.2584  149.8479  144.6724 H       1  UNL111      0.0674
     44 H         124.0726  154.1879  147.8582 H       1  UNL111      0.0513
     45 H         124.6924  151.9087  145.8067 H       1  UNL111      0.0361
     46 H         124.6296  151.7694  147.5819 H       1  UNL111      0.0361
     47 H         125.8799  155.3518  146.6288 H       1  UNL111      0.0361
     48 H         125.5739  154.4285  145.1363 H       1  UNL111      0.0361
     49 H         116.6807  153.4984  148.0907 H       1  UNL111      0.1128
     50 H         127.0248  152.7062  146.2164 H       1  UNL111      0.0330
     51 H         126.5981  153.2887  147.8468 H       1  UNL111      0.0330
     52 H         118.4320  156.2080  144.3279 H       1  UNL111      0.0932
     53 H         116.3632  156.8659  145.4883 H       1  UNL111      0.1103
@<TRIPOS>UNITY_ATOM_ATTR
4 1
charge 1
@<TRIPOS>BOND
     1     1     6    1
     2     2    18    2
     3     3    24    1
     4     4     7    1
     5     4    12    1
     6     4    15    1
     7     5     6    1
     8     5     8    1
     9     5    10    1
    10     5    11    1
    11     6     7    1
    12     6     9    1
    13     7    13    1
    14     8    12    1
    15     9    16    1
    16    10    18    1
    17    11    14   ar
    18    11    21   ar
    19    13    14    1
    20    14    23   ar
    21    15    17    1
    22    16    18    1
    23    17    19    1
    24    17    20    1
    25    19    22    1
    26    20    22    1
    27    21    24   ar
    28    23    25   ar
    29    24    25   ar
    30     1    26    1
    31     3    27    1
    32     4    28    1
    33     7    29    1
    34     8    30    1
    35     8    31    1
    36     9    32    1
    37     9    33    1
    38    10    34    1
    39    10    35    1
    40    12    36    1
    41    12    37    1
    42    13    38    1
    43    13    39    1
    44    15    40    1
    45    15    41    1
    46    16    42    1
    47    16    43    1
    48    17    44    1
    49    19    45    1
    50    19    46    1
    51    20    47    1
    52    20    48    1
    53    21    49    1
    54    22    50    1
    55    22    51    1
    56    23    52    1
    57    25    53    1
@<TRIPOS>MOLECULE
71750031
 63 68 0 0 0
SMALL
GASTEIGER

@<TRIPOS>ATOM
      1 O         121.2469  155.3722  146.3506 O.3     1  UNL111     -0.4384
      2 O         116.7955  154.3207  146.9356 O.3     1  UNL111     -0.4170
      3 O         116.8554  156.2906  145.6752 O.3     1  UNL111     -0.4170
      4 O         116.2868  150.0415  145.3265 O.3     1  UNL111     -0.5835
      5 N         122.3910  152.9995  146.3875 N.4     1  UNL111      0.4307
      6 C         119.5847  153.6197  145.8275 C.3     1  UNL111      0.0294
      7 C         120.4015  154.3468  146.9443 C.3     1  UNL111      0.0354
      8 C         121.4075  153.3381  147.5360 C.3     1  UNL111     -0.0007
      9 C         118.5463  154.6327  145.2584 C.3     1  UNL111      0.0151
     10 C         120.5664  153.2156  144.6874 C.3     1  UNL111     -0.0310
     11 C         119.5185  155.0021  148.0207 C.3     1  UNL111     -0.0106
     12 C         117.6508  155.2891  146.3237 C.3     1  UNL111      0.0835
     13 C         118.9746  152.2963  146.3316 C.ar    1  UNL111     -0.0362
     14 C         121.7456  152.3700  145.1751 C.3     1  UNL111     -0.0350
     15 C         118.4816  155.9545  147.4227 C.3     1  UNL111      0.0019
     16 C         120.7490  152.1101  148.1609 C.3     1  UNL111     -0.0178
     17 C         119.5462  151.5974  147.4129 C.ar    1  UNL111     -0.0582
     18 C         123.6471  152.2975  146.8477 C.3     1  UNL111     -0.0378
     19 C         124.8331  152.5631  145.9385 C.3     1  UNL111     -0.0514
     20 C         117.8915  151.6927  145.6626 C.ar    1  UNL111     -0.0216
     21 C         125.4012  154.0085  145.9265 C.3     1  UNL111     -0.0555
     22 C         126.2151  152.1233  146.4924 C.3     1  UNL111     -0.0555
     23 C         118.9855  150.3796  147.8352 C.ar    1  UNL111     -0.0627
     24 C         126.8045  153.3790  145.8183 C.3     1  UNL111     -0.0586
     25 C         115.4957  154.5844  146.4040 C.3     1  UNL111      0.0392
     26 C         115.5241  156.0654  146.1448 C.3     1  UNL111      0.0392
     27 C         117.3407  150.4762  146.0804 C.ar    1  UNL111      0.0346
     28 C         117.8882  149.8243  147.1766 C.ar    1  UNL111     -0.0298
     29 C         115.6387  148.8470  145.7492 C.3     1  UNL111      0.0293
     30 H         120.7075  156.1544  146.1242 H       1  UNL111      0.2431
     31 H         122.6669  153.9521  146.0837 H       1  UNL111      0.1366
     32 H         122.0338  153.8424  148.2832 H       1  UNL111      0.0967
     33 H         117.9195  154.1716  144.4868 H       1  UNL111      0.0666
     34 H         119.0755  155.4349  144.7242 H       1  UNL111      0.0666
     35 H         120.9648  154.1148  144.1988 H       1  UNL111      0.0532
     36 H         120.0403  152.6633  143.8975 H       1  UNL111      0.0532
     37 H         120.1454  155.5744  148.7158 H       1  UNL111      0.0539
     38 H         118.9952  154.2447  148.6148 H       1  UNL111      0.0539
     39 H         121.4579  151.3475  145.4375 H       1  UNL111      0.0742
     40 H         122.5026  152.3185  144.3869 H       1  UNL111      0.0742
     41 H         118.9685  156.8557  147.0311 H       1  UNL111      0.0612
     42 H         117.8225  156.3038  148.2280 H       1  UNL111      0.0612
     43 H         120.4125  152.3769  149.1713 H       1  UNL111      0.0629
     44 H         121.4808  151.3027  148.2772 H       1  UNL111      0.0629
     45 H         123.4216  151.2270  146.9016 H       1  UNL111      0.0745
     46 H         123.8605  152.6535  147.8617 H       1  UNL111      0.0745
     47 H         124.6743  152.1729  144.9237 H       1  UNL111      0.0513
     48 H         117.4374  152.1592  144.7915 H       1  UNL111      0.1130
     49 H         125.2424  154.5679  146.8561 H       1  UNL111      0.0361
     50 H         125.0955  154.6307  145.0814 H       1  UNL111      0.0361
     51 H         126.5923  151.1669  146.1210 H       1  UNL111      0.0361
     52 H         126.2952  152.1364  147.5858 H       1  UNL111      0.0361
     53 H         119.4029  149.8451  148.6878 H       1  UNL111      0.0933
     54 H         127.5985  153.8877  146.3704 H       1  UNL111      0.0330
     55 H         127.1349  153.2124  144.7866 H       1  UNL111      0.0330
     56 H         114.7194  154.2803  147.1102 H       1  UNL111      0.1029
     57 H         115.3858  154.0144  145.4753 H       1  UNL111      0.1029
     58 H         114.7913  156.3920  145.4030 H       1  UNL111      0.1029
     59 H         115.3880  156.6394  147.0676 H       1  UNL111      0.1029
     60 H         117.4922  148.8814  147.5400 H       1  UNL111      0.1105
     61 H         114.8048  148.6595  145.0660 H       1  UNL111      0.1069
     62 H         115.2261  148.9568  146.7576 H       1  UNL111      0.1069
     63 H         116.3176  147.9900  145.6903 H       1  UNL111      0.1069
@<TRIPOS>UNITY_ATOM_ATTR
5 1
charge 1
@<TRIPOS>BOND
     1     1     7    1
     2     2    12    1
     3     2    25    1
     4     3    12    1
     5     3    26    1
     6     4    27    1
     7     4    29    1
     8     5     8    1
     9     5    14    1
    10     5    18    1
    11     6     7    1
    12     6     9    1
    13     6    10    1
    14     6    13    1
    15     7     8    1
    16     7    11    1
    17     8    16    1
    18     9    12    1
    19    10    14    1
    20    11    15    1
    21    12    15    1
    22    13    17   ar
    23    13    20   ar
    24    16    17    1
    25    17    23   ar
    26    18    19    1
    27    19    21    1
    28    19    22    1
    29    20    27   ar
    30    21    24    1
    31    22    24    1
    32    23    28   ar
    33    25    26    1
    34    27    28   ar
    35     1    30    1
    36     5    31    1
    37     8    32    1
    38     9    33    1
    39     9    34    1
    40    10    35    1
    41    10    36    1
    42    11    37    1
    43    11    38    1
    44    14    39    1
    45    14    40    1
    46    15    41    1
    47    15    42    1
    48    16    43    1
    49    16    44    1
    50    18    45    1
    51    18    46    1
    52    19    47    1
    53    20    48    1
    54    21    49    1
    55    21    50    1
    56    22    51    1
    57    22    52    1
    58    23    53    1
    59    24    54    1
    60    24    55    1
    61    25    56    1
    62    25    57    1
    63    26    58    1
    64    26    59    1
    65    28    60    1
    66    29    61    1
    67    29    62    1
    68    29    63    1
@<TRIPOS>MOLECULE
625439
 57 61 0 0 0
SMALL
GASTEIGER

@<TRIPOS>ATOM
      1 O         119.8638  154.5287  148.5136 O.3     1  UNL111     -0.4392
      2 O         114.7497  152.3207  145.7892 O.3     1  UNL111     -0.5835
      3 N         121.6444  152.7844  145.6596 N.4     1  UNL111      0.4307
      4 C         119.1863  154.3595  146.1178 C.3     1  UNL111      0.0141
      5 C         120.3457  154.3740  147.1650 C.3     1  UNL111      0.0296
      6 C         121.0844  153.0128  147.0776 C.3     1  UNL111     -0.0014
      7 C         119.7582  154.1055  144.6925 C.3     1  UNL111     -0.0340
      8 C         118.4598  155.7373  146.1517 C.3     1  UNL111     -0.0389
      9 C         121.2994  155.5705  146.9601 C.3     1  UNL111     -0.0262
     10 C         118.2350  153.1808  146.4176 C.ar    1  UNL111     -0.0395
     11 C         120.5891  152.8312  144.5760 C.3     1  UNL111     -0.0353
     12 C         120.1421  151.8828  147.5380 C.3     1  UNL111     -0.0178
     13 C         119.3951  156.9445  146.0315 C.3     1  UNL111     -0.0566
     14 C         120.5479  156.9002  147.0247 C.3     1  UNL111     -0.0524
     15 C         118.7133  152.0157  147.0570 C.ar    1  UNL111     -0.0586
     16 C         122.5351  151.5594  145.4945 C.3     1  UNL111     -0.0379
     17 C         123.7098  151.5149  146.4526 C.3     1  UNL111     -0.0514
     18 C         116.8902  153.2044  146.0046 C.ar    1  UNL111     -0.0220
     19 C         124.7624  152.6518  146.3452 C.3     1  UNL111     -0.0555
     20 C         124.8585  150.5426  146.0697 C.3     1  UNL111     -0.0555
     21 C         125.8358  151.5869  146.6476 C.3     1  UNL111     -0.0586
     22 C         117.8366  150.9463  147.3022 C.ar    1  UNL111     -0.0627
     23 C         116.0232  152.1335  146.2478 C.ar    1  UNL111      0.0345
     24 C         116.5012  151.0044  146.9009 C.ar    1  UNL111     -0.0298
     25 C         113.7913  151.3188  146.1114 C.3     1  UNL111      0.0293
     26 H         118.8900  154.4642  148.5391 H       1  UNL111      0.2430
     27 H         122.2761  153.5735  145.4743 H       1  UNL111      0.1366
     28 H         121.9530  153.0352  147.7447 H       1  UNL111      0.0966
     29 H         120.3848  154.9448  144.3712 H       1  UNL111      0.0527
     30 H         118.9422  154.0535  143.9594 H       1  UNL111      0.0527
     31 H         117.8879  155.8337  147.0841 H       1  UNL111      0.0400
     32 H         117.7292  155.8109  145.3371 H       1  UNL111      0.0400
     33 H         121.8327  155.5161  146.0063 H       1  UNL111      0.0498
     34 H         122.0638  155.5739  147.7478 H       1  UNL111      0.0498
     35 H         119.9881  151.9195  144.6435 H       1  UNL111      0.0742
     36 H         121.1155  152.8201  143.6149 H       1  UNL111      0.0742
     37 H         120.1099  151.8936  148.6361 H       1  UNL111      0.0629
     38 H         120.5355  150.9018  147.2542 H       1  UNL111      0.0629
     39 H         118.8184  157.8641  146.1859 H       1  UNL111      0.0332
     40 H         119.7948  157.0045  145.0126 H       1  UNL111      0.0332
     41 H         121.2417  157.7236  146.8195 H       1  UNL111      0.0345
     42 H         120.1625  157.0634  148.0384 H       1  UNL111      0.0345
     43 H         122.8948  151.5947  144.4590 H       1  UNL111      0.0745
     44 H         121.9047  150.6707  145.5960 H       1  UNL111      0.0745
     45 H         123.3856  151.3441  147.4890 H       1  UNL111      0.0513
     46 H         116.4755  154.0619  145.4784 H       1  UNL111      0.1130
     47 H         124.6703  153.4536  147.0824 H       1  UNL111      0.0361
     48 H         124.8534  153.0950  145.3465 H       1  UNL111      0.0361
     49 H         124.9812  150.3797  144.9924 H       1  UNL111      0.0361
     50 H         124.8487  149.5737  146.5757 H       1  UNL111      0.0361
     51 H         126.0394  151.4568  147.7167 H       1  UNL111      0.0330
     52 H         126.7827  151.7003  146.1144 H       1  UNL111      0.0330
     53 H         118.1853  150.0521  147.8180 H       1  UNL111      0.0933
     54 H         115.8628  150.1519  147.1118 H       1  UNL111      0.1105
     55 H         112.8224  151.6457  145.7221 H       1  UNL111      0.1069
     56 H         113.6928  151.1997  147.1955 H       1  UNL111      0.1069
     57 H         114.0414  150.3679  145.6299 H       1  UNL111      0.1069
@<TRIPOS>UNITY_ATOM_ATTR
3 1
charge 1
@<TRIPOS>BOND
     1     1     5    1
     2     2    23    1
     3     2    25    1
     4     3     6    1
     5     3    11    1
     6     3    16    1
     7     4     5    1
     8     4     7    1
     9     4     8    1
    10     4    10    1
    11     5     6    1
    12     5     9    1
    13     6    12    1
    14     7    11    1
    15     8    13    1
    16     9    14    1
    17    10    15   ar
    18    10    18   ar
    19    12    15    1
    20    13    14    1
    21    15    22   ar
    22    16    17    1
    23    17    19    1
    24    17    20    1
    25    18    23   ar
    26    19    21    1
    27    20    21    1
    28    22    24   ar
    29    23    24   ar
    30     1    26    1
    31     3    27    1
    32     6    28    1
    33     7    29    1
    34     7    30    1
    35     8    31    1
    36     8    32    1
    37     9    33    1
    38     9    34    1
    39    11    35    1
    40    11    36    1
    41    12    37    1
    42    12    38    1
    43    13    39    1
    44    13    40    1
    45    14    41    1
    46    14    42    1
    47    16    43    1
    48    16    44    1
    49    17    45    1
    50    18    46    1
    51    19    47    1
    52    19    48    1
    53    20    49    1
    54    20    50    1
    55    21    51    1
    56    21    52    1
    57    22    53    1
    58    24    54    1
    59    25    55    1
    60    25    56    1
    61    25    57    1
@<TRIPOS>MOLECULE
138395412
 63 68 0 0 0
SMALL
GASTEIGER

@<TRIPOS>ATOM
      1 O         121.3038  151.0166  146.4428 O.3     1  UNL111     -0.4384
      2 O         117.0220  149.7802  146.8114 O.3     1  UNL111     -0.4170
      3 O         116.8204  151.8981  145.8422 O.3     1  UNL111     -0.4170
      4 O         115.9697  155.9640  147.4621 O.3     1  UNL111     -0.5835
      5 N         122.5781  153.1141  146.5487 N.4     1  UNL111      0.4307
      6 C         119.5598  152.6209  147.1404 C.3     1  UNL111      0.0294
      7 C         120.4380  152.1041  146.0022 C.3     1  UNL111      0.0354
      8 C         121.3243  153.3670  145.8362 C.3     1  UNL111     -0.0007
      9 C         118.5363  151.5187  147.5290 C.3     1  UNL111      0.0151
     10 C         120.5793  152.8937  148.3596 C.3     1  UNL111     -0.0310
     11 C         119.6583  151.5694  144.7876 C.3     1  UNL111     -0.0106
     12 C         117.7434  150.9291  146.3435 C.3     1  UNL111      0.0835
     13 C         118.8757  153.9590  146.6005 C.ar    1  UNL111     -0.0362
     14 C         122.1673  153.0231  148.0741 C.3     1  UNL111     -0.0350
     15 C         118.6597  150.4799  145.1987 C.3     1  UNL111      0.0019
     16 C         120.7909  154.3412  144.8256 C.3     1  UNL111     -0.0178
     17 C         119.4014  154.6940  145.4551 C.ar    1  UNL111     -0.0582
     18 C         123.7272  154.0144  146.2346 C.3     1  UNL111     -0.0378
     19 C         125.0284  153.5110  146.8279 C.3     1  UNL111     -0.0514
     20 C         117.7360  154.4693  147.2357 C.ar    1  UNL111     -0.0216
     21 C         125.6504  152.2410  146.1865 C.3     1  UNL111     -0.0555
     22 C         126.3086  154.2587  146.3693 C.3     1  UNL111     -0.0555
     23 C         118.7217  155.8129  144.9678 C.ar    1  UNL111     -0.0627
     24 C         127.0297  152.8959  146.4019 C.3     1  UNL111     -0.0586
     25 C         115.6582  150.2035  146.8755 C.3     1  UNL111      0.0392
     26 C         115.5628  151.2244  145.7762 C.3     1  UNL111      0.0392
     27 C         117.0756  155.6017  146.7408 C.ar    1  UNL111      0.0346
     28 C         117.5604  156.2558  145.6055 C.ar    1  UNL111     -0.0298
     29 C         115.2168  157.0717  146.9817 C.3     1  UNL111      0.0293
     30 H         120.7738  150.2074  146.5807 H       1  UNL111      0.2431
     31 H         122.8153  152.1359  146.2994 H       1  UNL111      0.1366
     32 H         121.1173  154.1330  146.5931 H       1  UNL111      0.0967
     33 H         117.8402  151.8886  148.2908 H       1  UNL111      0.0666
     34 H         119.0652  150.6885  148.0181 H       1  UNL111      0.0666
     35 H         120.4788  152.0900  149.1008 H       1  UNL111      0.0532
     36 H         120.2641  153.8042  148.8866 H       1  UNL111      0.0532
     37 H         120.3580  151.1420  144.0589 H       1  UNL111      0.0539
     38 H         119.0976  152.3487  144.2642 H       1  UNL111      0.0539
     39 H         122.5430  153.9318  148.5571 H       1  UNL111      0.0742
     40 H         122.7036  152.1561  148.4739 H       1  UNL111      0.0742
     41 H         119.1866  149.5599  145.4783 H       1  UNL111      0.0612
     42 H         118.0558  150.2121  144.3220 H       1  UNL111      0.0612
     43 H         120.6750  153.9166  143.8252 H       1  UNL111      0.0629
     44 H         121.4083  155.2449  144.7621 H       1  UNL111      0.0629
     45 H         123.4762  155.0103  146.6161 H       1  UNL111      0.0745
     46 H         123.7914  154.0686  145.1419 H       1  UNL111      0.0745
     47 H         124.9813  153.4397  147.9241 H       1  UNL111      0.0513
     48 H         117.3170  153.9884  148.1159 H       1  UNL111      0.1130
     49 H         125.3964  152.0931  145.1302 H       1  UNL111      0.0361
     50 H         125.4812  151.3058  146.7264 H       1  UNL111      0.0361
     51 H         126.6912  155.0122  147.0627 H       1  UNL111      0.0361
     52 H         126.2471  154.6973  145.3663 H       1  UNL111      0.0361
     53 H         119.0968  156.3664  144.1094 H       1  UNL111      0.0933
     54 H         127.7655  152.7280  145.6117 H       1  UNL111      0.0330
     55 H         127.4837  152.6598  147.3711 H       1  UNL111      0.0330
     56 H         115.4878  150.6532  147.8596 H       1  UNL111      0.1029
     57 H         114.9824  149.3553  146.7424 H       1  UNL111      0.1029
     58 H         115.4829  150.7506  144.7920 H       1  UNL111      0.1029
     59 H         114.7385  151.9296  145.9068 H       1  UNL111      0.1029
     60 H         117.0630  157.1327  145.2015 H       1  UNL111      0.1105
     61 H         114.3625  157.2106  147.6511 H       1  UNL111      0.1069
     62 H         114.8257  156.8779  145.9774 H       1  UNL111      0.1069
     63 H         115.8113  157.9909  147.0049 H       1  UNL111      0.1069
@<TRIPOS>UNITY_ATOM_ATTR
5 1
charge 1
@<TRIPOS>BOND
     1     1     7    1
     2     2    12    1
     3     2    25    1
     4     3    12    1
     5     3    26    1
     6     4    27    1
     7     4    29    1
     8     5     8    1
     9     5    14    1
    10     5    18    1
    11     6     7    1
    12     6     9    1
    13     6    10    1
    14     6    13    1
    15     7     8    1
    16     7    11    1
    17     8    16    1
    18     9    12    1
    19    10    14    1
    20    11    15    1
    21    12    15    1
    22    13    17   ar
    23    13    20   ar
    24    16    17    1
    25    17    23   ar
    26    18    19    1
    27    19    21    1
    28    19    22    1
    29    20    27   ar
    30    21    24    1
    31    22    24    1
    32    23    28   ar
    33    25    26    1
    34    27    28   ar
    35     1    30    1
    36     5    31    1
    37     8    32    1
    38     9    33    1
    39     9    34    1
    40    10    35    1
    41    10    36    1
    42    11    37    1
    43    11    38    1
    44    14    39    1
    45    14    40    1
    46    15    41    1
    47    15    42    1
    48    16    43    1
    49    16    44    1
    50    18    45    1
    51    18    46    1
    52    19    47    1
    53    20    48    1
    54    21    49    1
    55    21    50    1
    56    22    51    1
    57    22    52    1
    58    23    53    1
    59    24    54    1
    60    24    55    1
    61    25    56    1
    62    25    57    1
    63    26    58    1
    64    26    59    1
    65    28    60    1
    66    29    61    1
    67    29    62    1
    68    29    63    1
@<TRIPOS>MOLECULE
131707803
 53 57 0 0 0
SMALL
GASTEIGER

@<TRIPOS>ATOM
      1 O         120.8180  150.9245  146.3664 O.3     1  UNL111     -0.4382
      2 O         116.1057  150.5023  146.4459 O.2     1  UNL111     -0.4229
      3 O         115.0242  155.4131  147.3418 O.2     1  UNL111     -0.5646
      4 N         121.9787  153.1091  146.5896 N.4     1  UNL111      0.4307
      5 C         119.0090  152.3823  147.1958 C.3     1  UNL111      0.0331
      6 C         119.8917  151.9859  146.0103 C.3     1  UNL111      0.0365
      7 C         120.6961  153.3172  145.9162 C.3     1  UNL111     -0.0005
      8 C         120.0229  152.7003  148.4064 C.3     1  UNL111     -0.0304
      9 C         119.1022  151.4892  144.7785 C.3     1  UNL111     -0.0069
     10 C         118.0979  151.1988  147.5727 C.3     1  UNL111      0.0362
     11 C         118.1913  153.6644  146.6932 C.3     1  UNL111     -0.0357
     12 C         121.6048  152.8414  148.1047 C.3     1  UNL111     -0.0349
     13 C         120.0965  154.3095  144.9650 C.3     1  UNL111     -0.0177
     14 C         118.6775  154.5107  145.5980 C.3     1  UNL111     -0.0582
     15 C         123.0364  154.1417  146.3581 C.3     1  UNL111     -0.0378
     16 C         118.1090  150.3765  145.1293 C.3     1  UNL111      0.0231
     17 C         124.3995  153.6771  146.8321 C.3     1  UNL111     -0.0514
     18 C         117.3121  150.7165  146.3713 C.2     1  UNL111      0.0822
     19 C         125.0966  152.5781  145.9851 C.3     1  UNL111     -0.0555
     20 C         125.5889  154.5981  146.4518 C.3     1  UNL111     -0.0555
     21 C         116.9638  153.9944  147.2842 C.3     1  UNL111     -0.0225
     22 C         126.4237  153.3180  146.2465 C.3     1  UNL111     -0.0586
     23 C         117.9072  155.5814  145.1357 C.3     1  UNL111     -0.0629
     24 C         116.2284  155.0756  146.7972 C.3     1  UNL111      0.0345
     25 C         116.6837  155.8573  145.7387 C.3     1  UNL111     -0.0309
     26 H         120.3905  150.0506  146.2786 H       1  UNL111      0.2431
     27 H         114.7290  154.7124  147.9469 H       1  UNL111      0.3342
     28 H         122.3069  152.1887  146.2469 H       1  UNL111      0.1366
     29 H         120.4440  154.0221  146.7180 H       1  UNL111      0.0967
     30 H         119.9304  151.9236  149.1768 H       1  UNL111      0.0533
     31 H         119.6983  153.6274  148.8983 H       1  UNL111      0.0533
     32 H         119.7996  151.1083  144.0224 H       1  UNL111      0.0548
     33 H         118.5282  152.2837  144.2949 H       1  UNL111      0.0548
     34 H         117.4042  151.4565  148.3790 H       1  UNL111      0.0729
     35 H         118.6855  150.3448  147.9326 H       1  UNL111      0.0729
     36 H         122.0088  153.6752  148.6887 H       1  UNL111      0.0742
     37 H         122.1342  151.9235  148.3814 H       1  UNL111      0.0742
     38 H         120.0230  153.9402  143.9389 H       1  UNL111      0.0629
     39 H         120.6388  155.2622  144.9656 H       1  UNL111      0.0629
     40 H         122.7222  155.0540  146.8770 H       1  UNL111      0.0745
     41 H         123.0476  154.3427  145.2809 H       1  UNL111      0.0745
     42 H         118.6222  149.4257  145.3069 H       1  UNL111      0.0674
     43 H         117.4182  150.2258  144.2925 H       1  UNL111      0.0674
     44 H         124.4068  153.4395  147.9055 H       1  UNL111      0.0513
     45 H         124.8049  152.5640  144.9282 H       1  UNL111      0.0361
     46 H         125.0350  151.5621  146.3834 H       1  UNL111      0.0361
     47 H         125.9396  155.2688  147.2406 H       1  UNL111      0.0361
     48 H         125.4425  155.1771  145.5323 H       1  UNL111      0.0361
     49 H         116.5615  153.4231  148.1148 H       1  UNL111      0.1128
     50 H         127.1290  153.3394  145.4122 H       1  UNL111      0.0330
     51 H         126.9457  152.9817  147.1495 H       1  UNL111      0.0330
     52 H         118.2514  156.2176  144.3231 H       1  UNL111      0.0932
     53 H         116.0784  156.6914  145.3893 H       1  UNL111      0.1103
@<TRIPOS>UNITY_ATOM_ATTR
4 1
charge 1
@<TRIPOS>BOND
     1     1     6    1
     2     2    18    2
     3     3    24    1
     4     4     7    1
     5     4    12    1
     6     4    15    1
     7     5     6    1
     8     5     8    1
     9     5    10    1
    10     5    11    1
    11     6     7    1
    12     6     9    1
    13     7    13    1
    14     8    12    1
    15     9    16    1
    16    10    18    1
    17    11    14   ar
    18    11    21   ar
    19    13    14    1
    20    14    23   ar
    21    15    17    1
    22    16    18    1
    23    17    19    1
    24    17    20    1
    25    19    22    1
    26    20    22    1
    27    21    24   ar
    28    23    25   ar
    29    24    25   ar
    30     1    26    1
    31     3    27    1
    32     4    28    1
    33     7    29    1
    34     8    30    1
    35     8    31    1
    36     9    32    1
    37     9    33    1
    38    10    34    1
    39    10    35    1
    40    12    36    1
    41    12    37    1
    42    13    38    1
    43    13    39    1
    44    15    40    1
    45    15    41    1
    46    16    42    1
    47    16    43    1
    48    17    44    1
    49    19    45    1
    50    19    46    1
    51    20    47    1
    52    20    48    1
    53    21    49    1
    54    22    50    1
    55    22    51    1
    56    23    52    1
    57    25    53    1
