@<TRIPOS>MOLECULE
62156
 60 62 0 0 0
SMALL
GASTEIGER

@<TRIPOS>ATOM
      1 O         119.1565  155.7649  147.3332 O.3     1  UNL111     -0.5242
      2 O         117.6243  154.6384  148.6016 O.2     1  UNL111     -0.3272
      3 O         116.8681  155.3567  145.2386 O.2     1  UNL111     -0.3812
      4 N         121.4055  152.8530  146.4631 N.4     1  UNL111      0.4278
      5 N         117.1079  153.2543  146.1205 N.am    1  UNL111     -0.2518
      6 C         118.5094  153.5545  146.5888 C.3     1  UNL111      0.1416
      7 C         119.1650  152.3876  147.3801 C.3     1  UNL111      0.0011
      8 C         119.4109  153.8694  145.3688 C.3     1  UNL111      0.0011
      9 C         120.6172  152.6576  147.7342 C.3     1  UNL111     -0.0302
     10 C         120.8918  154.0340  145.6811 C.3     1  UNL111     -0.0302
     11 C         122.9014  152.9554  146.7643 C.3     1  UNL111     -0.0355
     12 C         118.3462  154.7097  147.6136 C.2     1  UNL111      0.2494
     13 C         116.5565  151.9735  146.3516 C.3     1  UNL111      0.0036
     14 C         123.7418  152.6881  145.5121 C.3     1  UNL111     -0.0312
     15 C         116.3750  154.2478  145.4547 C.2     1  UNL111      0.1568
     16 C         114.9504  153.9117  145.0257 C.3     1  UNL111      0.0345
     17 C         125.2110  152.7118  145.8420 C.3     1  UNL111     -0.0753
     18 C         116.6337  150.9945  145.3565 C.3     1  UNL111     -0.0544
     19 C         115.9391  151.6929  147.5732 C.3     1  UNL111     -0.0544
     20 C         114.2532  155.0920  144.3684 C.3     1  UNL111     -0.0445
     21 C         118.9390  156.9041  148.1734 C.3     1  UNL111      0.0468
     22 C         116.0992  149.7279  145.5914 C.3     1  UNL111     -0.0786
     23 C         115.4047  150.4254  147.8015 C.3     1  UNL111     -0.0786
     24 C         125.9316  153.9129  145.7806 C.3     1  UNL111     -0.0811
     25 C         125.8693  151.5414  146.2447 C.3     1  UNL111     -0.0811
     26 C         115.4874  149.4441  146.8130 C.3     1  UNL111     -0.0844
     27 C         127.2865  153.9403  146.1130 C.3     1  UNL111     -0.0857
     28 C         127.2244  151.5737  146.5770 C.3     1  UNL111     -0.0857
     29 C         127.9317  152.7720  146.5119 C.3     1  UNL111     -0.0868
     30 H         121.2823  152.0050  145.8904 H       1  UNL111      0.1325
     31 H         119.1276  151.4609  146.7930 H       1  UNL111      0.0646
     32 H         118.6233  152.1906  148.3133 H       1  UNL111      0.0646
     33 H         119.0921  154.7788  144.8502 H       1  UNL111      0.0646
     34 H         119.3021  153.0570  144.6365 H       1  UNL111      0.0646
     35 H         120.7510  153.5475  148.3584 H       1  UNL111      0.0752
     36 H         121.0403  151.7892  148.2506 H       1  UNL111      0.0752
     37 H         121.4525  154.0779  144.7430 H       1  UNL111      0.0752
     38 H         121.1165  154.9355  146.2570 H       1  UNL111      0.0752
     39 H         123.1224  152.2005  147.5281 H       1  UNL111      0.0751
     40 H         123.0855  153.9478  147.1918 H       1  UNL111      0.0751
     41 H         123.5415  153.4317  144.7328 H       1  UNL111      0.0589
     42 H         123.4790  151.7152  145.0779 H       1  UNL111      0.0589
     43 H         114.3737  153.6070  145.9050 H       1  UNL111      0.0735
     44 H         114.9781  153.0805  144.3143 H       1  UNL111      0.0735
     45 H         117.0931  151.2098  144.3959 H       1  UNL111      0.0994
     46 H         115.8568  152.4565  148.3443 H       1  UNL111      0.0994
     47 H         114.1956  155.9453  145.0522 H       1  UNL111      0.0319
     48 H         113.2347  154.8181  144.0766 H       1  UNL111      0.0319
     49 H         114.7904  155.4160  143.4709 H       1  UNL111      0.0319
     50 H         119.5410  157.7296  147.7838 H       1  UNL111      0.1103
     51 H         119.2651  156.6857  149.1947 H       1  UNL111      0.1103
     52 H         117.8866  157.2047  148.1552 H       1  UNL111      0.1103
     53 H         116.1447  148.9624  144.8198 H       1  UNL111      0.0890
     54 H         114.9116  150.2042  148.7458 H       1  UNL111      0.0890
     55 H         125.4557  154.8385  145.4638 H       1  UNL111      0.0893
     56 H         125.3445  150.5899  146.2958 H       1  UNL111      0.0893
     57 H         115.0597  148.4592  146.9906 H       1  UNL111      0.0876
     58 H         127.8451  154.8721  146.0551 H       1  UNL111      0.0876
     59 H         127.7350  150.6624  146.8811 H       1  UNL111      0.0876
     60 H         128.9895  152.7941  146.7650 H       1  UNL111      0.0874
@<TRIPOS>UNITY_ATOM_ATTR
4 1
charge 1
@<TRIPOS>BOND
     1     1    12    1
     2     1    21    1
     3     2    12    2
     4     3    15    2
     5     4     9    1
     6     4    10    1
     7     4    11    1
     8     5     6    1
     9     5    13    1
    10     5    15   am
    11     6     7    1
    12     6     8    1
    13     6    12    1
    14     7     9    1
    15     8    10    1
    16    11    14    1
    17    13    18   ar
    18    13    19   ar
    19    14    17    1
    20    15    16    1
    21    16    20    1
    22    17    24   ar
    23    17    25   ar
    24    18    22   ar
    25    19    23   ar
    26    22    26   ar
    27    23    26   ar
    28    24    27   ar
    29    25    28   ar
    30    27    29   ar
    31    28    29   ar
    32     4    30    1
    33     7    31    1
    34     7    32    1
    35     8    33    1
    36     8    34    1
    37     9    35    1
    38     9    36    1
    39    10    37    1
    40    10    38    1
    41    11    39    1
    42    11    40    1
    43    14    41    1
    44    14    42    1
    45    16    43    1
    46    16    44    1
    47    18    45    1
    48    19    46    1
    49    20    47    1
    50    20    48    1
    51    20    49    1
    52    21    50    1
    53    21    51    1
    54    21    52    1
    55    22    53    1
    56    23    54    1
    57    24    55    1
    58    25    56    1
    59    26    57    1
    60    27    58    1
    61    28    59    1
    62    29    60    1
@<TRIPOS>MOLECULE
449698
 60 62 0 0 0
SMALL
GASTEIGER

@<TRIPOS>ATOM
      1 O         119.1736  155.7579  147.2907 O.3     1  UNL111     -0.5242
      2 O         117.6292  154.6584  148.5676 O.2     1  UNL111     -0.3272
      3 O         116.8677  155.3259  145.1897 O.2     1  UNL111     -0.3812
      4 N         121.4107  152.8544  146.4366 N.4     1  UNL111      0.4278
      5 N         117.1036  153.2393  146.1103 N.am    1  UNL111     -0.2518
      6 C         118.5083  153.5463  146.5678 C.3     1  UNL111      0.1416
      7 C         119.1723  152.3890  147.3653 C.3     1  UNL111      0.0011
      8 C         119.4034  153.8456  145.3382 C.3     1  UNL111      0.0011
      9 C         120.6248  152.6670  147.7100 C.3     1  UNL111     -0.0302
     10 C         120.8865  154.0181  145.6371 C.3     1  UNL111     -0.0302
     11 C         122.9036  152.9760  146.7449 C.3     1  UNL111     -0.0355
     12 C         118.3519  154.7137  147.5792 C.2     1  UNL111      0.2494
     13 C         116.5518  151.9608  146.3592 C.3     1  UNL111      0.0036
     14 C         123.7575  152.7658  145.4914 C.3     1  UNL111     -0.0312
     15 C         116.3699  154.2246  145.4324 C.2     1  UNL111      0.1568
     16 C         114.9366  153.8929  145.0288 C.3     1  UNL111      0.0345
     17 C         125.2216  152.7535  145.8454 C.3     1  UNL111     -0.0753
     18 C         116.5390  150.9998  145.3439 C.3     1  UNL111     -0.0544
     19 C         116.0187  151.6645  147.6168 C.3     1  UNL111     -0.0544
     20 C         114.2187  155.0869  144.4203 C.3     1  UNL111     -0.0445
     21 C         118.9752  156.9029  148.1278 C.3     1  UNL111      0.0468
     22 C         116.0016  149.7370  145.5935 C.3     1  UNL111     -0.0786
     23 C         115.4829  150.4003  147.8609 C.3     1  UNL111     -0.0786
     24 C         125.9505  153.9503  145.8912 C.3     1  UNL111     -0.0811
     25 C         125.8649  151.5505  146.1688 C.3     1  UNL111     -0.0811
     26 C         115.4769  149.4377  146.8512 C.3     1  UNL111     -0.0844
     27 C         127.2986  153.9416  146.2516 C.3     1  UNL111     -0.0857
     28 C         127.2130  151.5467  146.5293 C.3     1  UNL111     -0.0857
     29 C         127.9285  152.7411  146.5717 C.3     1  UNL111     -0.0868
     30 H         121.2987  151.9976  145.8747 H       1  UNL111      0.1325
     31 H         119.1317  151.4565  146.7873 H       1  UNL111      0.0646
     32 H         118.6399  152.2012  148.3054 H       1  UNL111      0.0646
     33 H         119.0808  154.7469  144.8081 H       1  UNL111      0.0646
     34 H         119.2913  153.0225  144.6184 H       1  UNL111      0.0646
     35 H         120.7568  153.5627  148.3262 H       1  UNL111      0.0752
     36 H         121.0527  151.8052  148.2335 H       1  UNL111      0.0752
     37 H         121.4390  154.0442  144.6932 H       1  UNL111      0.0752
     38 H         121.1146  154.9314  146.1926 H       1  UNL111      0.0752
     39 H         123.1338  152.2022  147.4868 H       1  UNL111      0.0751
     40 H         123.0672  153.9583  147.2031 H       1  UNL111      0.0751
     41 H         123.5783  153.5553  144.7529 H       1  UNL111      0.0589
     42 H         123.4899  151.8218  145.0003 H       1  UNL111      0.0589
     43 H         114.3807  153.5610  145.9116 H       1  UNL111      0.0735
     44 H         114.9525  153.0823  144.2938 H       1  UNL111      0.0735
     45 H         116.9325  151.2253  144.3565 H       1  UNL111      0.0994
     46 H         115.9987  152.4149  148.4046 H       1  UNL111      0.0994
     47 H         114.1774  155.9224  145.1269 H       1  UNL111      0.0319
     48 H         113.1934  154.8169  144.1492 H       1  UNL111      0.0319
     49 H         114.7302  155.4354  143.5169 H       1  UNL111      0.0319
     50 H         119.6100  157.7094  147.7510 H       1  UNL111      0.1103
     51 H         119.2741  156.6754  149.1556 H       1  UNL111      0.1103
     52 H         117.9327  157.2344  148.0882 H       1  UNL111      0.1103
     53 H         115.9775  148.9868  144.8060 H       1  UNL111      0.0890
     54 H         115.0559  150.1683  148.8343 H       1  UNL111      0.0890
     55 H         125.4866  154.9013  145.6383 H       1  UNL111      0.0893
     56 H         125.3332  150.6020  146.1364 H       1  UNL111      0.0893
     57 H         115.0472  148.4560  147.0411 H       1  UNL111      0.0876
     58 H         127.8638  154.8708  146.2778 H       1  UNL111      0.0876
     59 H         127.7117  150.6108  146.7721 H       1  UNL111      0.0876
     60 H         128.9809  152.7356  146.8472 H       1  UNL111      0.0874
@<TRIPOS>UNITY_ATOM_ATTR
4 1
charge 1
@<TRIPOS>BOND
     1     1    12    1
     2     1    21    1
     3     2    12    2
     4     3    15    2
     5     4     9    1
     6     4    10    1
     7     4    11    1
     8     5     6    1
     9     5    13    1
    10     5    15   am
    11     6     7    1
    12     6     8    1
    13     6    12    1
    14     7     9    1
    15     8    10    1
    16    11    14    1
    17    13    18   ar
    18    13    19   ar
    19    14    17    1
    20    15    16    1
    21    16    20    1
    22    17    24   ar
    23    17    25   ar
    24    18    22   ar
    25    19    23   ar
    26    22    26   ar
    27    23    26   ar
    28    24    27   ar
    29    25    28   ar
    30    27    29   ar
    31    28    29   ar
    32     4    30    1
    33     7    31    1
    34     7    32    1
    35     8    33    1
    36     8    34    1
    37     9    35    1
    38     9    36    1
    39    10    37    1
    40    10    38    1
    41    11    39    1
    42    11    40    1
    43    14    41    1
    44    14    42    1
    45    16    43    1
    46    16    44    1
    47    18    45    1
    48    19    46    1
    49    20    47    1
    50    20    48    1
    51    20    49    1
    52    21    50    1
    53    21    51    1
    54    21    52    1
    55    22    53    1
    56    23    54    1
    57    24    55    1
    58    25    56    1
    59    26    57    1
    60    27    58    1
    61    28    59    1
    62    29    60    1
@<TRIPOS>MOLECULE
155548948
 59 61 0 0 0
SMALL
GASTEIGER

@<TRIPOS>ATOM
      1 O         117.2225  151.5117  148.3690 O.3     1  UNL111     -0.5242
      2 O         119.2238  150.5696  147.7914 O.2     1  UNL111     -0.3272
      3 O         116.2448  150.9569  145.5234 O.2     1  UNL111     -0.3812
      4 O         123.1298  154.4548  145.3958 O.2     1  UNL111     -0.3953
      5 N         121.3032  152.5248  145.7831 N.4     1  UNL111      0.4368
      6 N         117.0246  153.0082  146.1931 N.am    1  UNL111     -0.2518
      7 C         118.4031  152.4529  146.4626 C.3     1  UNL111      0.1417
      8 C         118.9958  151.8642  145.1552 C.3     1  UNL111      0.0017
      9 C         119.3980  153.5206  147.0061 C.3     1  UNL111      0.0017
     10 C         120.4498  151.4244  145.2421 C.3     1  UNL111     -0.0259
     11 C         120.8348  153.0324  147.1174 C.3     1  UNL111     -0.0259
     12 C         118.3138  151.3648  147.5715 C.2     1  UNL111      0.2494
     13 C         122.7955  152.1392  145.8170 C.3     1  UNL111      0.0476
     14 C         116.7761  154.3869  146.3886 C.3     1  UNL111      0.0036
     15 C         116.0174  152.1523  145.7215 C.2     1  UNL111      0.1568
     16 C         123.6515  153.3937  145.7450 C.2     1  UNL111      0.1250
     17 C         114.6320  152.7477  145.4906 C.3     1  UNL111      0.0345
     18 C         116.4693  154.8653  147.6654 C.3     1  UNL111     -0.0544
     19 C         116.8413  155.2651  145.3028 C.3     1  UNL111     -0.0544
     20 C         125.0907  153.3219  146.1142 C.3     1  UNL111      0.0218
     21 C         113.6130  151.6959  145.0828 C.3     1  UNL111     -0.0445
     22 C         117.1058  150.5391  149.4104 C.3     1  UNL111      0.0468
     23 C         116.2377  156.2272  147.8565 C.3     1  UNL111     -0.0786
     24 C         116.6104  156.6264  145.5001 C.3     1  UNL111     -0.0786
     25 C         116.3113  157.1062  146.7756 C.3     1  UNL111     -0.0844
     26 C         125.7574  152.1030  146.2919 C.3     1  UNL111     -0.0548
     27 C         125.7853  154.5252  146.2969 C.3     1  UNL111     -0.0548
     28 C         127.1048  152.0957  146.6624 C.3     1  UNL111     -0.0809
     29 C         127.1300  154.5102  146.6686 C.3     1  UNL111     -0.0809
     30 C         127.7875  153.2961  146.8534 C.3     1  UNL111     -0.0857
     31 H         121.2801  153.3331  145.1333 H       1  UNL111      0.1391
     32 H         118.9069  152.6169  144.3594 H       1  UNL111      0.0647
     33 H         118.4299  150.9936  144.8110 H       1  UNL111      0.0647
     34 H         119.0855  153.8672  147.9989 H       1  UNL111      0.0647
     35 H         119.4042  154.3992  146.3484 H       1  UNL111      0.0647
     36 H         120.5999  150.5399  145.8666 H       1  UNL111      0.0759
     37 H         120.8217  151.1945  144.2370 H       1  UNL111      0.0759
     38 H         121.4846  153.8661  147.4036 H       1  UNL111      0.0759
     39 H         120.9663  152.2344  147.8530 H       1  UNL111      0.0759
     40 H         122.9927  151.5317  144.9284 H       1  UNL111      0.1104
     41 H         122.9606  151.5700  146.7354 H       1  UNL111      0.1104
     42 H         114.6951  153.5006  144.6988 H       1  UNL111      0.0735
     43 H         114.2895  153.2296  146.4121 H       1  UNL111      0.0735
     44 H         116.3907  154.1868  148.5111 H       1  UNL111      0.0994
     45 H         117.0632  154.9018  144.3031 H       1  UNL111      0.0994
     46 H         113.9067  151.2043  144.1495 H       1  UNL111      0.0319
     47 H         112.6312  152.1554  144.9324 H       1  UNL111      0.0319
     48 H         113.5151  150.9241  145.8534 H       1  UNL111      0.0319
     49 H         116.1619  150.7150  149.9333 H       1  UNL111      0.1103
     50 H         117.9264  150.6506  150.1256 H       1  UNL111      0.1103
     51 H         117.0891  149.5279  148.9921 H       1  UNL111      0.1103
     52 H         115.9877  156.6052  148.8455 H       1  UNL111      0.0890
     53 H         116.6529  157.3160  144.6597 H       1  UNL111      0.0890
     54 H         116.1221  158.1674  146.9258 H       1  UNL111      0.0876
     55 H         125.2741  151.1424  146.1432 H       1  UNL111      0.0955
     56 H         125.2894  155.4846  146.1560 H       1  UNL111      0.0955
     57 H         127.6312  151.1527  146.8009 H       1  UNL111      0.0882
     58 H         127.6670  155.4458  146.8132 H       1  UNL111      0.0882
     59 H         128.8372  153.2862  147.1421 H       1  UNL111      0.0875
@<TRIPOS>UNITY_ATOM_ATTR
5 1
charge 1
@<TRIPOS>BOND
     1     1    12    1
     2     1    22    1
     3     2    12    2
     4     3    15    2
     5     4    16    2
     6     5    10    1
     7     5    11    1
     8     5    13    1
     9     6     7    1
    10     6    14    1
    11     6    15   am
    12     7     8    1
    13     7     9    1
    14     7    12    1
    15     8    10    1
    16     9    11    1
    17    13    16    1
    18    14    18   ar
    19    14    19   ar
    20    15    17    1
    21    16    20    1
    22    17    21    1
    23    18    23   ar
    24    19    24   ar
    25    20    26   ar
    26    20    27   ar
    27    23    25   ar
    28    24    25   ar
    29    26    28   ar
    30    27    29   ar
    31    28    30   ar
    32    29    30   ar
    33     5    31    1
    34     8    32    1
    35     8    33    1
    36     9    34    1
    37     9    35    1
    38    10    36    1
    39    10    37    1
    40    11    38    1
    41    11    39    1
    42    13    40    1
    43    13    41    1
    44    17    42    1
    45    17    43    1
    46    18    44    1
    47    19    45    1
    48    21    46    1
    49    21    47    1
    50    21    48    1
    51    22    49    1
    52    22    50    1
    53    22    51    1
    54    23    52    1
    55    24    53    1
    56    25    54    1
    57    26    55    1
    58    27    56    1
    59    28    57    1
    60    29    58    1
    61    30    59    1
@<TRIPOS>MOLECULE
12298033
 61 63 0 0 0
SMALL
GASTEIGER

@<TRIPOS>ATOM
      1 O         118.9580  155.9551  147.1848 O.3     1  UNL111     -0.5242
      2 O         117.4254  154.8834  148.4981 O.2     1  UNL111     -0.3272
      3 O         123.0138  151.4602  145.3804 O.3     1  UNL111     -0.4382
      4 O         116.7132  155.3571  145.0831 O.2     1  UNL111     -0.3812
      5 N         121.2853  153.1202  146.5787 N.4     1  UNL111      0.4308
      6 N         116.9792  153.3246  146.1117 N.am    1  UNL111     -0.2518
      7 C         118.3670  153.6869  146.5761 C.3     1  UNL111      0.1417
      8 C         119.2788  153.9323  145.3478 C.3     1  UNL111      0.0013
      9 C         119.0440  152.5955  147.4521 C.3     1  UNL111      0.0013
     10 C         120.7443  154.1813  145.6692 C.3     1  UNL111     -0.0285
     11 C         120.4745  152.9487  147.8262 C.3     1  UNL111     -0.0285
     12 C         122.7821  153.3209  146.8784 C.3     1  UNL111     -0.0087
     13 C         118.1625  154.9042  147.5181 C.2     1  UNL111      0.2494
     14 C         123.6021  152.7309  145.7089 C.3     1  UNL111      0.0358
     15 C         116.4480  152.0524  146.4244 C.3     1  UNL111      0.0036
     16 C         116.2377  154.2562  145.3694 C.2     1  UNL111      0.1568
     17 C         114.8236  153.8680  144.9496 C.3     1  UNL111      0.0345
     18 C         125.0692  152.5925  146.0232 C.3     1  UNL111     -0.0428
     19 C         116.5039  151.0245  145.4787 C.3     1  UNL111     -0.0544
     20 C         115.8566  151.8326  147.6714 C.3     1  UNL111     -0.0544
     21 C         114.1019  155.0034  144.2411 C.3     1  UNL111     -0.0445
     22 C         118.7194  157.1346  147.9608 C.3     1  UNL111      0.0468
     23 C         115.9734  149.7719  145.7873 C.3     1  UNL111     -0.0786
     24 C         115.3276  150.5784  147.9744 C.3     1  UNL111     -0.0786
     25 C         126.0089  153.3742  145.3332 C.3     1  UNL111     -0.0712
     26 C         125.5261  151.6967  147.0030 C.3     1  UNL111     -0.0712
     27 C         115.3878  149.5495  147.0341 C.3     1  UNL111     -0.0844
     28 C         127.3701  153.2687  145.6229 C.3     1  UNL111     -0.0839
     29 C         126.8881  151.5974  147.2929 C.3     1  UNL111     -0.0839
     30 C         127.8084  152.3837  146.6043 C.3     1  UNL111     -0.0864
     31 H         123.7205  150.9194  144.9705 H       1  UNL111      0.2432
     32 H         121.2835  152.2146  146.0658 H       1  UNL111      0.1351
     33 H         118.9371  154.7806  144.7472 H       1  UNL111      0.0646
     34 H         119.2147  153.0566  144.6866 H       1  UNL111      0.0646
     35 H         119.0553  151.6350  146.9205 H       1  UNL111      0.0646
     36 H         118.4874  152.4340  148.3830 H       1  UNL111      0.0646
     37 H         121.3303  154.1526  144.7450 H       1  UNL111      0.0755
     38 H         120.9203  155.1473  146.1492 H       1  UNL111      0.0755
     39 H         120.5501  153.8727  148.4087 H       1  UNL111      0.0755
     40 H         120.9212  152.1279  148.3977 H       1  UNL111      0.0755
     41 H         122.9827  152.7671  147.8021 H       1  UNL111      0.0884
     42 H         122.9714  154.3854  147.0511 H       1  UNL111      0.0884
     43 H         123.4741  153.3599  144.8210 H       1  UNL111      0.1200
     44 H         114.2488  153.5859  145.8376 H       1  UNL111      0.0735
     45 H         114.8758  153.0096  144.2728 H       1  UNL111      0.0735
     46 H         116.9441  151.1904  144.4992 H       1  UNL111      0.0994
     47 H         115.7863  152.6345  148.4036 H       1  UNL111      0.0994
     48 H         114.0230  155.8833  144.8882 H       1  UNL111      0.0319
     49 H         113.0907  154.6946  143.9588 H       1  UNL111      0.0319
     50 H         114.6343  155.3016  143.3318 H       1  UNL111      0.0319
     51 H         119.3413  157.9366  147.5542 H       1  UNL111      0.1103
     52 H         119.0072  156.9655  149.0030 H       1  UNL111      0.1103
     53 H         117.6703  157.4384  147.8893 H       1  UNL111      0.1103
     54 H         116.0024  148.9695  145.0533 H       1  UNL111      0.0890
     55 H         114.8549  150.4051  148.9388 H       1  UNL111      0.0890
     56 H         125.7003  154.0721  144.5567 H       1  UNL111      0.0917
     57 H         124.8333  151.0590  147.5489 H       1  UNL111      0.0917
     58 H         114.9636  148.5753  147.2690 H       1  UNL111      0.0876
     59 H         128.0932  153.8748  145.0805 H       1  UNL111      0.0878
     60 H         127.2374  150.9021  148.0537 H       1  UNL111      0.0878
     61 H         128.8702  152.3024  146.8278 H       1  UNL111      0.0874
@<TRIPOS>UNITY_ATOM_ATTR
5 1
charge 1
@<TRIPOS>BOND
     1     1    13    1
     2     1    22    1
     3     2    13    2
     4     3    14    1
     5     4    16    2
     6     5    10    1
     7     5    11    1
     8     5    12    1
     9     6     7    1
    10     6    15    1
    11     6    16   am
    12     7     8    1
    13     7     9    1
    14     7    13    1
    15     8    10    1
    16     9    11    1
    17    12    14    1
    18    14    18    1
    19    15    19   ar
    20    15    20   ar
    21    16    17    1
    22    17    21    1
    23    18    25   ar
    24    18    26   ar
    25    19    23   ar
    26    20    24   ar
    27    23    27   ar
    28    24    27   ar
    29    25    28   ar
    30    26    29   ar
    31    28    30   ar
    32    29    30   ar
    33     3    31    1
    34     5    32    1
    35     8    33    1
    36     8    34    1
    37     9    35    1
    38     9    36    1
    39    10    37    1
    40    10    38    1
    41    11    39    1
    42    11    40    1
    43    12    41    1
    44    12    42    1
    45    14    43    1
    46    17    44    1
    47    17    45    1
    48    19    46    1
    49    20    47    1
    50    21    48    1
    51    21    49    1
    52    21    50    1
    53    22    51    1
    54    22    52    1
    55    22    53    1
    56    23    54    1
    57    24    55    1
    58    25    56    1
    59    26    57    1
    60    27    58    1
    61    28    59    1
    62    29    60    1
    63    30    61    1
@<TRIPOS>MOLECULE
165365203
 60 62 0 0 0
SMALL
GASTEIGER

@<TRIPOS>ATOM
      1 O         117.2496  151.3823  148.2167 O.3     1  UNL111     -0.5242
      2 O         119.4795  150.9038  148.0626 O.2     1  UNL111     -0.3272
      3 O         116.9612  150.8203  145.2212 O.2     1  UNL111     -0.3812
      4 N         121.4782  153.3325  146.4415 N.4     1  UNL111      0.4278
      5 N         117.1818  152.9389  146.0755 N.am    1  UNL111     -0.2518
      6 C         118.5664  152.6381  146.6028 C.3     1  UNL111      0.1416
      7 C         119.2206  153.8503  147.3291 C.3     1  UNL111      0.0011
      8 C         119.4921  152.2264  145.4284 C.3     1  UNL111      0.0011
      9 C         120.6882  153.6543  147.6842 C.3     1  UNL111     -0.0302
     10 C         120.9653  152.0811  145.7790 C.3     1  UNL111     -0.0302
     11 C         122.9694  153.2417  146.7700 C.3     1  UNL111     -0.0355
     12 C         118.4856  151.5051  147.6654 C.2     1  UNL111      0.2494
     13 C         116.6240  154.2249  146.2667 C.3     1  UNL111      0.0036
     14 C         123.8292  153.3642  145.5087 C.3     1  UNL111     -0.0312
     15 C         116.4699  151.9372  145.3965 C.2     1  UNL111      0.1568
     16 C         115.0639  152.2720  144.9083 C.3     1  UNL111      0.0345
     17 C         125.2936  153.3587  145.8609 C.3     1  UNL111     -0.0753
     18 C         116.0089  154.5459  147.4798 C.3     1  UNL111     -0.0544
     19 C         116.6900  155.1696  145.2379 C.3     1  UNL111     -0.0544
     20 C         114.3788  151.0786  144.2619 C.3     1  UNL111     -0.0445
     21 C         117.1326  150.3533  149.2028 C.3     1  UNL111      0.0468
     22 C         115.4677  155.8177  147.6658 C.3     1  UNL111     -0.0786
     23 C         116.1490  156.4408  145.4303 C.3     1  UNL111     -0.0786
     24 C         125.9617  154.5572  146.1482 C.3     1  UNL111     -0.0811
     25 C         125.9987  152.1493  145.9386 C.3     1  UNL111     -0.0811
     26 C         115.5408  156.7641  146.6434 C.3     1  UNL111     -0.0844
     27 C         127.3111  154.5441  146.5041 C.3     1  UNL111     -0.0857
     28 C         127.3481  152.1411  146.2937 C.3     1  UNL111     -0.0857
     29 C         128.0031  153.3372  146.5774 C.3     1  UNL111     -0.0868
     30 H         121.3663  154.1196  145.7872 H       1  UNL111      0.1325
     31 H         118.6808  154.0789  148.2564 H       1  UNL111      0.0646
     32 H         119.1595  154.7448  146.6961 H       1  UNL111      0.0646
     33 H         119.3970  152.9723  144.6271 H       1  UNL111      0.0646
     34 H         119.1875  151.2715  144.9903 H       1  UNL111      0.0646
     35 H         121.0916  154.5901  148.0875 H       1  UNL111      0.0752
     36 H         120.8616  152.8616  148.4172 H       1  UNL111      0.0752
     37 H         121.1742  151.2345  146.4382 H       1  UNL111      0.0752
     38 H         121.5358  151.9411  144.8560 H       1  UNL111      0.0752
     39 H         123.1347  152.2974  147.3018 H       1  UNL111      0.0751
     40 H         123.1925  154.0697  147.4532 H       1  UNL111      0.0751
     41 H         123.5848  154.2881  144.9694 H       1  UNL111      0.0589
     42 H         123.6303  152.5439  144.8103 H       1  UNL111      0.0589
     43 H         115.1241  153.0801  144.1729 H       1  UNL111      0.0735
     44 H         114.4595  152.6083  145.7570 H       1  UNL111      0.0735
     45 H         115.9258  153.8100  148.2756 H       1  UNL111      0.0994
     46 H         117.1488  154.9247  144.2838 H       1  UNL111      0.0994
     47 H         114.9435  150.7239  143.3932 H       1  UNL111      0.0319
     48 H         113.3736  151.3522  143.9268 H       1  UNL111      0.0319
     49 H         114.2898  150.2463  144.9678 H       1  UNL111      0.0319
     50 H         116.0866  150.3038  149.5174 H       1  UNL111      0.1103
     51 H         117.7479  150.5936  150.0751 H       1  UNL111      0.1103
     52 H         117.4158  149.3835  148.7820 H       1  UNL111      0.1103
     53 H         114.9748  156.0697  148.6025 H       1  UNL111      0.0890
     54 H         116.1873  157.1787  144.6318 H       1  UNL111      0.0890
     55 H         125.4486  155.5146  146.0908 H       1  UNL111      0.0893
     56 H         125.5142  151.2010  145.7155 H       1  UNL111      0.0893
     57 H         115.1078  157.7523  146.7876 H       1  UNL111      0.0876
     58 H         127.8292  155.4762  146.7193 H       1  UNL111      0.0876
     59 H         127.8942  151.2015  146.3445 H       1  UNL111      0.0876
     60 H         129.0564  153.3292  146.8492 H       1  UNL111      0.0874
@<TRIPOS>UNITY_ATOM_ATTR
4 1
charge 1
@<TRIPOS>BOND
     1     1    12    1
     2     1    21    1
     3     2    12    2
     4     3    15    2
     5     4     9    1
     6     4    10    1
     7     4    11    1
     8     5     6    1
     9     5    13    1
    10     5    15   am
    11     6     7    1
    12     6     8    1
    13     6    12    1
    14     7     9    1
    15     8    10    1
    16    11    14    1
    17    13    18   ar
    18    13    19   ar
    19    14    17    1
    20    15    16    1
    21    16    20    1
    22    17    24   ar
    23    17    25   ar
    24    18    22   ar
    25    19    23   ar
    26    22    26   ar
    27    23    26   ar
    28    24    27   ar
    29    25    28   ar
    30    27    29   ar
    31    28    29   ar
    32     4    30    1
    33     7    31    1
    34     7    32    1
    35     8    33    1
    36     8    34    1
    37     9    35    1
    38     9    36    1
    39    10    37    1
    40    10    38    1
    41    11    39    1
    42    11    40    1
    43    14    41    1
    44    14    42    1
    45    16    43    1
    46    16    44    1
    47    18    45    1
    48    19    46    1
    49    20    47    1
    50    20    48    1
    51    20    49    1
    52    21    50    1
    53    21    51    1
    54    21    52    1
    55    22    53    1
    56    23    54    1
    57    24    55    1
    58    25    56    1
    59    26    57    1
    60    27    58    1
    61    28    59    1
    62    29    60    1
@<TRIPOS>MOLECULE
46780189
 35 37 0 0 0
SMALL
GASTEIGER

@<TRIPOS>ATOM
      1 O         119.0070  150.4325  147.4553 O.3     1  UNL111     -0.4447
      2 O         117.6130  151.7446  148.7816 O.2     1  UNL111     -0.3234
      3 O         116.8666  150.7811  145.2774 O.2     1  UNL111     -0.3742
      4 N         121.2754  153.9732  145.2815 N.4     1  UNL111      0.4566
      5 N         116.9491  152.9025  146.1425 N.am    1  UNL111     -0.2286
      6 C         118.3211  152.5537  146.6014 C.3     1  UNL111      0.1968
      7 C         119.1672  153.7298  147.0395 C.3     1  UNL111      0.1166
      8 C         119.2033  152.1599  145.4306 C.3     1  UNL111      0.1166
      9 C         120.4601  154.3498  146.4582 C.3     1  UNL111      0.0723
     10 C         120.4997  152.7853  144.8585 C.3     1  UNL111      0.0723
     11 C         122.6625  153.6952  145.5985 C.3     1  UNL111      0.0648
     12 C         118.2520  151.5329  147.7525 C.2     1  UNL111      0.2740
     13 C         116.2994  154.1286  146.5226 C.2     1  UNL111      0.0471
     14 C         124.1439  153.4591  145.9019 C.3     1  UNL111      0.0681
     15 C         116.2817  151.8485  145.4669 C.2     1  UNL111      0.1877
     16 C         114.9021  151.9454  145.0140 C.3     1  UNL111      0.1403
     17 C         125.5383  153.2840  146.1597 C.3     1  UNL111     -0.0449
     18 C         116.7210  154.8708  147.6286 C.2     1  UNL111      0.0226
     19 C         115.2241  154.6401  145.7951 C.2     1  UNL111      0.0226
     20 C         113.4510  152.0404  144.5095 C.3     1  UNL111      0.0515
     21 C         119.2125  149.4892  148.4692 C.3     1  UNL111      0.2816
     22 C         116.1051  156.0668  147.9964 C.2     1  UNL111      0.0071
     23 C         114.5952  155.8351  146.1451 C.2     1  UNL111      0.0071
     24 C         126.0172  153.3075  147.4714 C.3     1  UNL111     -0.0754
     25 C         126.4262  153.1084  145.0953 C.3     1  UNL111     -0.0754
     26 C         115.0386  156.5508  147.2499 C.2     1  UNL111      0.0025
     27 C         127.3838  153.1579  147.7164 C.3     1  UNL111     -0.0850
     28 C         127.7918  152.9592  145.3440 C.3     1  UNL111     -0.0850
     29 C         128.2696  152.9851  146.6535 C.3     1  UNL111     -0.0867
     30 H         121.2222  154.7074  144.5628 H       1  UNL111      0.1722
     31 H         125.3448  153.4441  148.3146 H       1  UNL111      0.0902
     32 H         126.0752  153.0881  144.0667 H       1  UNL111      0.0902
     33 H         127.7621  153.1773  148.7364 H       1  UNL111      0.0876
     34 H         128.4869  152.8242  144.5180 H       1  UNL111      0.0876
     35 H         129.3345  152.8705  146.8460 H       1  UNL111      0.0874
@<TRIPOS>UNITY_ATOM_ATTR
4 1
charge 1
@<TRIPOS>BOND
     1     1    12    1
     2     1    21    1
     3     2    12    2
     4     3    15    2
     5     4     9    1
     6     4    10    1
     7     4    11    1
     8     5     6    1
     9     5    13    1
    10     5    15   am
    11     6     7    1
    12     6     8    1
    13     6    12    1
    14     7     9    1
    15     8    10    1
    16    11    14    1
    17    13    18    2
    18    13    19    1
    19    14    17    1
    20    15    16    1
    21    16    20    1
    22    17    24   ar
    23    17    25   ar
    24    18    22    1
    25    19    23    2
    26    22    26    2
    27    23    26    1
    28    24    27   ar
    29    25    28   ar
    30    27    29   ar
    31    28    29   ar
    32     4    30    1
    33    24    31    1
    34    25    32    1
    35    27    33    1
    36    28    34    1
    37    29    35    1
@<TRIPOS>MOLECULE
165361602
 57 59 0 0 0
SMALL
GASTEIGER

@<TRIPOS>ATOM
      1 O         117.0593  151.0390  147.8422 O.3     1  UNL111     -0.5242
      2 O         119.3090  150.6522  147.7192 O.2     1  UNL111     -0.3272
      3 O         116.8717  150.8298  144.7766 O.2     1  UNL111     -0.3825
      4 N         121.2787  153.2985  146.4345 N.4     1  UNL111      0.4278
      5 N         117.0070  152.8338  145.8981 N.am    1  UNL111     -0.2526
      6 C         118.3846  152.5116  146.4317 C.3     1  UNL111      0.1415
      7 C         118.9835  153.6518  147.3071 C.3     1  UNL111      0.0011
      8 C         119.3545  152.2581  145.2477 C.3     1  UNL111      0.0011
      9 C         120.4467  153.4584  147.6807 C.3     1  UNL111     -0.0302
     10 C         120.8217  152.1150  145.6236 C.3     1  UNL111     -0.0302
     11 C         122.7624  153.2122  146.7962 C.3     1  UNL111     -0.0355
     12 C         118.3082  151.2639  147.3562 C.2     1  UNL111      0.2493
     13 C         116.4060  154.0773  146.2074 C.3     1  UNL111      0.0034
     14 C         123.6529  153.4946  145.5827 C.3     1  UNL111     -0.0312
     15 C         116.3495  151.9035  145.0828 C.2     1  UNL111      0.1544
     16 C         125.1063  153.4895  145.9783 C.3     1  UNL111     -0.0753
     17 C         115.7976  154.2704  147.4508 C.3     1  UNL111     -0.0544
     18 C         116.4180  155.1078  145.2621 C.3     1  UNL111     -0.0544
     19 C         114.9563  152.2349  144.5983 C.3     1  UNL111      0.0320
     20 C         116.9455  149.9004  148.6998 C.3     1  UNL111      0.0468
     21 C         115.2117  155.4997  147.7518 C.3     1  UNL111     -0.0786
     22 C         115.8331  156.3362  145.5695 C.3     1  UNL111     -0.0786
     23 C         125.7306  154.6672  146.4126 C.3     1  UNL111     -0.0811
     24 C         125.8438  152.2974  145.9499 C.3     1  UNL111     -0.0811
     25 C         115.2329  156.5318  146.8135 C.3     1  UNL111     -0.0844
     26 C         127.0687  154.6510  146.8084 C.3     1  UNL111     -0.0857
     27 C         127.1818  152.2861  146.3456 C.3     1  UNL111     -0.0857
     28 C         127.7931  153.4615  146.7756 C.3     1  UNL111     -0.0868
     29 H         121.1606  154.1501  145.8677 H       1  UNL111      0.1325
     30 H         118.4154  153.7584  148.2394 H       1  UNL111      0.0646
     31 H         118.9095  154.6098  146.7765 H       1  UNL111      0.0646
     32 H         119.2582  153.0851  144.5304 H       1  UNL111      0.0646
     33 H         119.0917  151.3491  144.6990 H       1  UNL111      0.0646
     34 H         120.8103  154.3544  148.1967 H       1  UNL111      0.0752
     35 H         120.6250  152.5943  148.3267 H       1  UNL111      0.0752
     36 H         121.0382  151.2066  146.1919 H       1  UNL111      0.0752
     37 H         121.4205  152.0935  144.7083 H       1  UNL111      0.0752
     38 H         122.9412  152.2202  147.2272 H       1  UNL111      0.0751
     39 H         122.9420  153.9663  147.5717 H       1  UNL111      0.0751
     40 H         123.3963  154.4650  145.1394 H       1  UNL111      0.0589
     41 H         123.4984  152.7502  144.7938 H       1  UNL111      0.0589
     42 H         115.7514  153.4661  148.1807 H       1  UNL111      0.0994
     43 H         116.8720  154.9643  144.2852 H       1  UNL111      0.0994
     44 H         114.5290  151.3547  144.1077 H       1  UNL111      0.0686
     45 H         114.9924  153.0474  143.8689 H       1  UNL111      0.0686
     46 H         114.3059  152.5013  145.4350 H       1  UNL111      0.0686
     47 H         115.8913  149.7791  148.9628 H       1  UNL111      0.1103
     48 H         117.5180  150.0604  149.6185 H       1  UNL111      0.1103
     49 H         117.2819  148.9954  148.1844 H       1  UNL111      0.1103
     50 H         114.7234  155.6514  148.7122 H       1  UNL111      0.0890
     51 H         115.8315  157.1403  144.8366 H       1  UNL111      0.0890
     52 H         125.1916  155.6117  146.4407 H       1  UNL111      0.0893
     53 H         125.3939  151.3661  145.6120 H       1  UNL111      0.0893
     54 H         114.7654  157.4866  147.0469 H       1  UNL111      0.0876
     55 H         127.5529  155.5678  147.1380 H       1  UNL111      0.0876
     56 H         127.7534  151.3608  146.3141 H       1  UNL111      0.0876
     57 H         128.8377  153.4517  147.0791 H       1  UNL111      0.0874
@<TRIPOS>UNITY_ATOM_ATTR
4 1
charge 1
@<TRIPOS>BOND
     1     1    12    1
     2     1    20    1
     3     2    12    2
     4     3    15    2
     5     4     9    1
     6     4    10    1
     7     4    11    1
     8     5     6    1
     9     5    13    1
    10     5    15   am
    11     6     7    1
    12     6     8    1
    13     6    12    1
    14     7     9    1
    15     8    10    1
    16    11    14    1
    17    13    17   ar
    18    13    18   ar
    19    14    16    1
    20    15    19    1
    21    16    23   ar
    22    16    24   ar
    23    17    21   ar
    24    18    22   ar
    25    21    25   ar
    26    22    25   ar
    27    23    26   ar
    28    24    27   ar
    29    26    28   ar
    30    27    28   ar
    31     4    29    1
    32     7    30    1
    33     7    31    1
    34     8    32    1
    35     8    33    1
    36     9    34    1
    37     9    35    1
    38    10    36    1
    39    10    37    1
    40    11    38    1
    41    11    39    1
    42    14    40    1
    43    14    41    1
    44    17    42    1
    45    18    43    1
    46    19    44    1
    47    19    45    1
    48    19    46    1
    49    20    47    1
    50    20    48    1
    51    20    49    1
    52    21    50    1
    53    22    51    1
    54    23    52    1
    55    24    53    1
    56    25    54    1
    57    26    55    1
    58    27    56    1
    59    28    57    1
@<TRIPOS>MOLECULE
155520187
 61 63 0 0 0
SMALL
GASTEIGER

@<TRIPOS>ATOM
      1 O         117.3937  151.6725  148.3060 O.3     1  UNL111     -0.5242
      2 O         119.6029  151.0973  148.1835 O.2     1  UNL111     -0.3272
      3 O         117.1164  150.9747  145.2862 O.2     1  UNL111     -0.3791
      4 O         113.9272  150.7003  146.0448 O.3     1  UNL111     -0.4539
      5 N         121.6941  153.3712  146.4367 N.4     1  UNL111      0.4278
      6 N         117.3826  153.1086  146.0892 N.am    1  UNL111     -0.2504
      7 C         118.7579  152.7871  146.6338 C.3     1  UNL111      0.1418
      8 C         119.4575  154.0112  147.2961 C.3     1  UNL111      0.0011
      9 C         119.6705  152.2800  145.4861 C.3     1  UNL111      0.0011
     10 C         120.9181  153.7838  147.6606 C.3     1  UNL111     -0.0302
     11 C         121.1378  152.1034  145.8464 C.3     1  UNL111     -0.0302
     12 C         123.1824  153.2513  146.7675 C.3     1  UNL111     -0.0355
     13 C         118.6333  151.7158  147.7535 C.2     1  UNL111      0.2494
     14 C         116.8814  154.4292  146.1848 C.3     1  UNL111      0.0038
     15 C         116.6327  152.0947  145.4663 C.2     1  UNL111      0.1657
     16 C         124.0410  153.2570  145.4993 C.3     1  UNL111     -0.0312
     17 C         115.2207  152.4343  144.9999 C.3     1  UNL111      0.0596
     18 C         125.5061  153.2310  145.8476 C.3     1  UNL111     -0.0753
     19 C         116.3757  154.9016  147.3994 C.3     1  UNL111     -0.0543
     20 C         116.8822  155.2541  145.0554 C.3     1  UNL111     -0.0543
     21 C         114.3776  151.1863  144.7841 C.3     1  UNL111      0.0228
     22 C         117.2225  150.6913  149.3313 C.3     1  UNL111      0.0468
     23 C         115.8857  156.2045  147.4868 C.3     1  UNL111     -0.0786
     24 C         116.3935  156.5573  145.1489 C.3     1  UNL111     -0.0786
     25 C         126.2202  154.4257  146.0139 C.3     1  UNL111     -0.0811
     26 C         126.1663  152.0092  146.0413 C.3     1  UNL111     -0.0811
     27 C         115.8986  157.0319  146.3638 C.3     1  UNL111     -0.0844
     28 C         127.5707  154.3965  146.3646 C.3     1  UNL111     -0.0857
     29 C         127.5168  151.9848  146.3912 C.3     1  UNL111     -0.0857
     30 C         128.2178  153.1774  146.5537 C.3     1  UNL111     -0.0868
     31 H         113.4210  149.8867  145.8704 H       1  UNL111      0.2339
     32 H         121.6048  154.1246  145.7405 H       1  UNL111      0.1325
     33 H         118.9322  154.3039  148.2134 H       1  UNL111      0.0646
     34 H         119.4236  154.8740  146.6182 H       1  UNL111      0.0646
     35 H         119.6002  152.9825  144.6440 H       1  UNL111      0.0646
     36 H         119.3381  151.3118  145.1019 H       1  UNL111      0.0646
     37 H         121.3541  154.7247  148.0152 H       1  UNL111      0.0752
     38 H         121.0648  153.0242  148.4334 H       1  UNL111      0.0752
     39 H         121.3175  151.2891  146.5532 H       1  UNL111      0.0752
     40 H         121.7016  151.8909  144.9334 H       1  UNL111      0.0752
     41 H         123.3171  152.3402  147.3621 H       1  UNL111      0.0751
     42 H         123.4367  154.1160  147.3920 H       1  UNL111      0.0751
     43 H         123.8219  154.1466  144.8955 H       1  UNL111      0.0589
     44 H         123.8156  152.3948  144.8620 H       1  UNL111      0.0589
     45 H         115.3142  152.9740  144.0514 H       1  UNL111      0.0864
     46 H         114.7237  153.0742  145.7350 H       1  UNL111      0.0864
     47 H         116.3291  154.2557  148.2729 H       1  UNL111      0.0994
     48 H         117.2557  154.8933  144.1009 H       1  UNL111      0.0994
     49 H         113.4910  151.4384  144.1932 H       1  UNL111      0.0924
     50 H         114.9233  150.3904  144.2683 H       1  UNL111      0.0924
     51 H         116.1695  150.6893  149.6255 H       1  UNL111      0.1103
     52 H         117.8287  150.9495  150.2049 H       1  UNL111      0.1103
     53 H         117.4818  149.6953  148.9591 H       1  UNL111      0.1103
     54 H         115.4758  156.5714  148.4254 H       1  UNL111      0.0890
     55 H         116.3846  157.2027  144.2732 H       1  UNL111      0.0890
     56 H         125.7426  155.3916  145.8647 H       1  UNL111      0.0893
     57 H         125.6453  151.0626  145.9135 H       1  UNL111      0.0893
     58 H         115.5048  158.0442  146.4319 H       1  UNL111      0.0876
     59 H         128.1247  155.3250  146.4854 H       1  UNL111      0.0876
     60 H         128.0279  151.0348  146.5322 H       1  UNL111      0.0876
     61 H         129.2720  153.1564  146.8213 H       1  UNL111      0.0874
@<TRIPOS>UNITY_ATOM_ATTR
5 1
charge 1
@<TRIPOS>BOND
     1     1    13    1
     2     1    22    1
     3     2    13    2
     4     3    15    2
     5     4    21    1
     6     5    10    1
     7     5    11    1
     8     5    12    1
     9     6     7    1
    10     6    14    1
    11     6    15   am
    12     7     8    1
    13     7     9    1
    14     7    13    1
    15     8    10    1
    16     9    11    1
    17    12    16    1
    18    14    19   ar
    19    14    20   ar
    20    15    17    1
    21    16    18    1
    22    17    21    1
    23    18    25   ar
    24    18    26   ar
    25    19    23   ar
    26    20    24   ar
    27    23    27   ar
    28    24    27   ar
    29    25    28   ar
    30    26    29   ar
    31    28    30   ar
    32    29    30   ar
    33     4    31    1
    34     5    32    1
    35     8    33    1
    36     8    34    1
    37     9    35    1
    38     9    36    1
    39    10    37    1
    40    10    38    1
    41    11    39    1
    42    11    40    1
    43    12    41    1
    44    12    42    1
    45    16    43    1
    46    16    44    1
    47    17    45    1
    48    17    46    1
    49    19    47    1
    50    20    48    1
    51    21    49    1
    52    21    50    1
    53    22    51    1
    54    22    52    1
    55    22    53    1
    56    23    54    1
    57    24    55    1
    58    25    56    1
    59    26    57    1
    60    27    58    1
    61    28    59    1
    62    29    60    1
    63    30    61    1
@<TRIPOS>MOLECULE
155564874
 61 63 0 0 0
SMALL
GASTEIGER

@<TRIPOS>ATOM
      1 O         116.9583  151.4057  148.2489 O.3     1  UNL111     -0.5242
      2 O         119.1790  150.8999  148.0520 O.2     1  UNL111     -0.3272
      3 O         116.6338  150.8096  145.2586 O.2     1  UNL111     -0.3812
      4 O         129.0023  153.1751  146.8179 O.2     1  UNL111     -0.5649
      5 N         121.1653  153.3309  146.4206 N.4     1  UNL111      0.4278
      6 N         116.8672  152.9361  146.0876 N.am    1  UNL111     -0.2518
      7 C         118.2559  152.6380  146.6024 C.3     1  UNL111      0.1416
      8 C         119.1715  152.2242  145.4214 C.3     1  UNL111      0.0011
      9 C         118.9146  153.8516  147.3221 C.3     1  UNL111      0.0011
     10 C         120.6474  152.0790  145.7611 C.3     1  UNL111     -0.0302
     11 C         120.3838  153.6529  147.6692 C.3     1  UNL111     -0.0302
     12 C         122.6588  153.2379  146.7370 C.3     1  UNL111     -0.0355
     13 C         118.1840  151.5091  147.6703 C.2     1  UNL111      0.2494
     14 C         116.3099  154.2214  146.2810 C.3     1  UNL111      0.0036
     15 C         123.5083  153.3915  145.4717 C.3     1  UNL111     -0.0307
     16 C         116.1479  151.9304  145.4231 C.2     1  UNL111      0.1568
     17 C         114.7432  152.2682  144.9334 C.3     1  UNL111      0.0345
     18 C         124.9766  153.3539  145.8072 C.3     1  UNL111     -0.0698
     19 C         115.6511  154.5228  147.4759 C.3     1  UNL111     -0.0544
     20 C         116.4190  155.1839  145.2725 C.3     1  UNL111     -0.0544
     21 C         114.0695  151.0861  144.2552 C.3     1  UNL111     -0.0445
     22 C         116.8522  150.3904  149.2502 C.3     1  UNL111      0.0468
     23 C         115.1088  155.7936  147.6646 C.3     1  UNL111     -0.0786
     24 C         115.8770  156.4541  145.4680 C.3     1  UNL111     -0.0786
     25 C         125.6759  154.5361  146.0944 C.3     1  UNL111     -0.0652
     26 C         125.6546  152.1278  145.8691 C.3     1  UNL111     -0.0652
     27 C         115.2247  156.7582  146.6633 C.3     1  UNL111     -0.0844
     28 C         127.0306  154.4932  146.4347 C.3     1  UNL111     -0.0315
     29 C         127.0066  152.0877  146.2101 C.3     1  UNL111     -0.0315
     30 C         127.6837  153.2676  146.4901 C.3     1  UNL111      0.0326
     31 H         129.3681  154.0671  146.9382 H       1  UNL111      0.3342
     32 H         121.0479  154.1179  145.7672 H       1  UNL111      0.1325
     33 H         119.0708  152.9693  144.6200 H       1  UNL111      0.0646
     34 H         118.8618  151.2693  144.9867 H       1  UNL111      0.0646
     35 H         118.3782  154.0842  148.2506 H       1  UNL111      0.0646
     36 H         118.8529  154.7444  146.6872 H       1  UNL111      0.0646
     37 H         120.8608  151.2324  146.4189 H       1  UNL111      0.0752
     38 H         121.2121  151.9390  144.8346 H       1  UNL111      0.0752
     39 H         120.7911  154.5880  148.0700 H       1  UNL111      0.0752
     40 H         120.5611  152.8595  148.4004 H       1  UNL111      0.0752
     41 H         122.8305  152.2832  147.2475 H       1  UNL111      0.0751
     42 H         122.8862  154.0517  147.4357 H       1  UNL111      0.0751
     43 H         123.2702  154.3362  144.9669 H       1  UNL111      0.0590
     44 H         123.2917  152.5985  144.7474 H       1  UNL111      0.0590
     45 H         114.8022  153.0939  144.2176 H       1  UNL111      0.0735
     46 H         114.1327  152.5810  145.7866 H       1  UNL111      0.0735
     47 H         115.5371  153.7731  148.2549 H       1  UNL111      0.0994
     48 H         116.9099  154.9527  144.3312 H       1  UNL111      0.0994
     49 H         114.6440  150.7528  143.3845 H       1  UNL111      0.0319
     50 H         113.0662  151.3626  143.9167 H       1  UNL111      0.0319
     51 H         113.9774  150.2383  144.9420 H       1  UNL111      0.0319
     52 H         115.8213  150.3812  149.6144 H       1  UNL111      0.1103
     53 H         117.5158  150.6145  150.0911 H       1  UNL111      0.1103
     54 H         117.0809  149.4084  148.8248 H       1  UNL111      0.1103
     55 H         114.5822  156.0309  148.5867 H       1  UNL111      0.0890
     56 H         115.9481  157.2064  144.6854 H       1  UNL111      0.0890
     57 H         125.1813  155.5042  146.0497 H       1  UNL111      0.0928
     58 H         125.1482  151.1912  145.6460 H       1  UNL111      0.0928
     59 H         114.7908  157.7457  146.8094 H       1  UNL111      0.0876
     60 H         127.5583  155.4179  146.6497 H       1  UNL111      0.1102
     61 H         127.5359  151.1388  146.2526 H       1  UNL111      0.1102
@<TRIPOS>UNITY_ATOM_ATTR
5 1
charge 1
@<TRIPOS>BOND
     1     1    13    1
     2     1    22    1
     3     2    13    2
     4     3    16    2
     5     4    30    1
     6     5    10    1
     7     5    11    1
     8     5    12    1
     9     6     7    1
    10     6    14    1
    11     6    16   am
    12     7     8    1
    13     7     9    1
    14     7    13    1
    15     8    10    1
    16     9    11    1
    17    12    15    1
    18    14    19   ar
    19    14    20   ar
    20    15    18    1
    21    16    17    1
    22    17    21    1
    23    18    25   ar
    24    18    26   ar
    25    19    23   ar
    26    20    24   ar
    27    23    27   ar
    28    24    27   ar
    29    25    28   ar
    30    26    29   ar
    31    28    30   ar
    32    29    30   ar
    33     4    31    1
    34     5    32    1
    35     8    33    1
    36     8    34    1
    37     9    35    1
    38     9    36    1
    39    10    37    1
    40    10    38    1
    41    11    39    1
    42    11    40    1
    43    12    41    1
    44    12    42    1
    45    15    43    1
    46    15    44    1
    47    17    45    1
    48    17    46    1
    49    19    47    1
    50    20    48    1
    51    21    49    1
    52    21    50    1
    53    21    51    1
    54    22    52    1
    55    22    53    1
    56    22    54    1
    57    23    55    1
    58    24    56    1
    59    25    57    1
    60    26    58    1
    61    27    59    1
    62    28    60    1
    63    29    61    1
@<TRIPOS>MOLECULE
155525839
 60 62 0 0 0
SMALL
GASTEIGER

@<TRIPOS>ATOM
      1 O         121.1949  152.0013  147.8816 O.co2   1  UNL1111    -0.7567
      2 O         117.4586  154.7465  144.4226 O.3     1  UNL1111    -0.5242
      3 O         119.5355  155.4709  145.0350 O.2     1  UNL1111    -0.3272
      4 O         116.5362  155.4313  147.1941 O.2     1  UNL1111    -0.3812
      5 N         121.3967  153.0556  147.0293 N.3     1  UNL1111     0.4026
      6 N         117.0590  153.2758  146.5693 N.am    1  UNL1111    -0.2518
      7 C         118.5090  153.6322  146.3173 C.3     1  UNL1111     0.1413
      8 C         119.3391  152.4675  145.7042 C.3     1  UNL1111    -0.0016
      9 C         119.1691  154.0987  147.6364 C.3     1  UNL1111    -0.0016
     10 C         120.8418  152.7322  145.6598 C.3     1  UNL1111    -0.0487
     11 C         120.6814  154.2778  147.5645 C.3     1  UNL1111    -0.0487
     12 C         122.8888  153.3726  146.9446 C.3     1  UNL1111    -0.0541
     13 C         118.5555  154.7586  145.2375 C.2     1  UNL1111     0.2493
     14 C         123.7723  152.1864  146.5580 C.3     1  UNL1111    -0.0340
     15 C         116.6199  151.9469  146.3608 C.3     1  UNL1111     0.0036
     16 C         116.1828  154.2577  147.0557 C.2     1  UNL1111     0.1568
     17 C         125.2235  152.5981  146.4859 C.3     1  UNL1111    -0.0754
     18 C         114.7605  153.8233  147.4002 C.3     1  UNL1111     0.0345
     19 C         115.9062  151.6287  145.2017 C.3     1  UNL1111    -0.0544
     20 C         116.8853  150.9610  147.3155 C.3     1  UNL1111    -0.0544
     21 C         125.7725  153.0629  145.2830 C.3     1  UNL1111    -0.0812
     22 C         126.0300  152.5528  147.6307 C.3     1  UNL1111    -0.0812
     23 C         117.4619  155.7579  143.4153 C.3     1  UNL1111     0.0468
     24 C         113.9496  154.9450  148.0296 C.3     1  UNL1111    -0.0445
     25 C         115.4633  150.3221  144.9959 C.3     1  UNL1111    -0.0786
     26 C         116.4410  149.6555  147.1051 C.3     1  UNL1111    -0.0786
     27 C         115.7309  149.3370  145.9471 C.3     1  UNL1111    -0.0844
     28 C         127.1071  153.4672  145.2257 C.3     1  UNL1111    -0.0857
     29 C         127.3642  152.9578  147.5708 C.3     1  UNL1111    -0.0857
     30 C         127.9023  153.4145  146.3690 C.3     1  UNL1111    -0.0868
     31 H         118.9933  152.2430  144.6868 H       1  UNL1111     0.0644
     32 H         119.2033  151.5515  146.2872 H       1  UNL1111     0.0644
     33 H         118.9406  153.3672  148.4227 H       1  UNL1111     0.0644
     34 H         118.7499  155.0510  147.9773 H       1  UNL1111     0.0644
     35 H         121.3515  151.8251  145.3215 H       1  UNL1111     0.0719
     36 H         121.1132  153.5568  144.9948 H       1  UNL1111     0.0719
     37 H         120.9744  155.1215  146.9334 H       1  UNL1111     0.0719
     38 H         121.0833  154.4477  148.5708 H       1  UNL1111     0.0719
     39 H         123.1662  153.7394  147.9409 H       1  UNL1111     0.0718
     40 H         122.9876  154.1994  146.2308 H       1  UNL1111     0.0718
     41 H         123.4782  151.7695  145.5890 H       1  UNL1111     0.0587
     42 H         123.6597  151.3677  147.2791 H       1  UNL1111     0.0587
     43 H         114.7991  152.9834  148.1014 H       1  UNL1111     0.0735
     44 H         114.2555  153.4995  146.4849 H       1  UNL1111     0.0735
     45 H         115.6988  152.3914  144.4555 H       1  UNL1111     0.0994
     46 H         117.4430  151.1990  148.2184 H       1  UNL1111     0.0994
     47 H         125.1662  153.1101  144.3815 H       1  UNL1111     0.0893
     48 H         125.6225  152.1989  148.5758 H       1  UNL1111     0.0893
     49 H         116.5084  155.7078  142.8825 H       1  UNL1111     0.1103
     50 H         118.2696  155.5778  142.6992 H       1  UNL1111     0.1103
     51 H         117.5546  156.7515  143.8649 H       1  UNL1111     0.1103
     52 H         114.4197  155.2996  148.9528 H       1  UNL1111     0.0319
     53 H         112.9409  154.5959  148.2712 H       1  UNL1111     0.0319
     54 H         113.8613  155.7974  147.3479 H       1  UNL1111     0.0319
     55 H         114.9112  150.0704  144.0940 H       1  UNL1111     0.0890
     56 H         116.6534  148.8860  147.8433 H       1  UNL1111     0.0890
     57 H         115.3879  148.3179  145.7852 H       1  UNL1111     0.0876
     58 H         127.5274  153.8225  144.2885 H       1  UNL1111     0.0876
     59 H         127.9840  152.9159  148.4626 H       1  UNL1111     0.0876
     60 H         128.9418  153.7282  146.3234 H       1  UNL1111     0.0874
@<TRIPOS>UNITY_ATOM_ATTR
1 1
charge -1
5 1
charge 1
@<TRIPOS>BOND
     1     1     5    1
     2     2    13    1
     3     2    23    1
     4     3    13    2
     5     4    16    2
     6     5    10    1
     7     5    11    1
     8     5    12    1
     9     6     7    1
    10     6    15    1
    11     6    16   am
    12     7     8    1
    13     7     9    1
    14     7    13    1
    15     8    10    1
    16     9    11    1
    17    12    14    1
    18    14    17    1
    19    15    19   ar
    20    15    20   ar
    21    16    18    1
    22    17    21   ar
    23    17    22   ar
    24    18    24    1
    25    19    25   ar
    26    20    26   ar
    27    21    28   ar
    28    22    29   ar
    29    25    27   ar
    30    26    27   ar
    31    28    30   ar
    32    29    30   ar
    33     8    31    1
    34     8    32    1
    35     9    33    1
    36     9    34    1
    37    10    35    1
    38    10    36    1
    39    11    37    1
    40    11    38    1
    41    12    39    1
    42    12    40    1
    43    14    41    1
    44    14    42    1
    45    18    43    1
    46    18    44    1
    47    19    45    1
    48    20    46    1
    49    21    47    1
    50    22    48    1
    51    23    49    1
    52    23    50    1
    53    23    51    1
    54    24    52    1
    55    24    53    1
    56    24    54    1
    57    25    55    1
    58    26    56    1
    59    27    57    1
    60    28    58    1
    61    29    59    1
    62    30    60    1
@<TRIPOS>MOLECULE
2724433
 57 59 0 0 0
SMALL
GASTEIGER

@<TRIPOS>ATOM
      1 O         119.6463  155.7765  147.5315 O.3     1  UNL111     -0.5242
      2 O         117.8423  154.7830  148.5219 O.2     1  UNL111     -0.3272
      3 O         117.7714  155.3693  145.0397 O.2     1  UNL111     -0.3812
      4 N         121.8593  152.7625  147.2198 N.4     1  UNL111      0.4303
      5 N         117.7262  153.3070  146.0406 N.am    1  UNL111     -0.2518
      6 C         119.0296  153.5689  146.7536 C.3     1  UNL111      0.1417
      7 C         119.4692  152.4102  147.6927 C.3     1  UNL111      0.0014
      8 C         120.1591  153.7880  145.7150 C.3     1  UNL111      0.0014
      9 C         120.8369  152.6391  148.3112 C.3     1  UNL111     -0.0287
     10 C         121.5624  153.9109  146.2942 C.3     1  UNL111     -0.0287
     11 C         118.7391  154.7756  147.6864 C.2     1  UNL111      0.2494
     12 C         123.2661  152.8333  147.7957 C.3     1  UNL111     -0.0143
     13 C         117.0620  152.0731  146.2317 C.3     1  UNL111      0.0036
     14 C         117.1866  154.2969  145.2056 C.2     1  UNL111      0.1568
     15 C         124.3378  152.6352  146.7596 C.3     1  UNL111     -0.0704
     16 C         115.8492  154.0071  144.5316 C.3     1  UNL111      0.0345
     17 C         117.2115  151.0506  145.2903 C.3     1  UNL111     -0.0544
     18 C         116.2568  151.8828  147.3581 C.3     1  UNL111     -0.0544
     19 C         124.5720  151.3642  146.2107 C.3     1  UNL111     -0.0746
     20 C         125.1033  153.7219  146.3096 C.3     1  UNL111     -0.0746
     21 C         115.3399  155.1930  143.7281 C.3     1  UNL111     -0.0445
     22 C         119.3419  156.9590  148.2798 C.3     1  UNL111      0.0468
     23 C         116.5609  149.8321  145.4843 C.3     1  UNL111     -0.0786
     24 C         115.6087  150.6626  147.5470 C.3     1  UNL111     -0.0786
     25 C         115.7629  149.6383  146.6123 C.3     1  UNL111     -0.0844
     26 C         125.5474  151.1888  145.2283 C.3     1  UNL111     -0.0834
     27 C         126.0769  153.5409  145.3266 C.3     1  UNL111     -0.0834
     28 C         126.2966  152.2764  144.7856 C.3     1  UNL111     -0.0861
     29 H         121.8427  151.9011  146.6570 H       1  UNL111      0.1352
     30 H         119.5001  151.4630  147.1385 H       1  UNL111      0.0646
     31 H         118.7538  152.2730  148.5125 H       1  UNL111      0.0646
     32 H         119.9879  154.6817  145.1073 H       1  UNL111      0.0646
     33 H         120.1508  152.9445  145.0101 H       1  UNL111      0.0646
     34 H         120.8823  153.5448  148.9253 H       1  UNL111      0.0756
     35 H         121.1163  151.7765  148.9257 H       1  UNL111      0.0756
     36 H         122.2882  153.8749  145.4756 H       1  UNL111      0.0756
     37 H         121.7209  154.8368  146.8532 H       1  UNL111      0.0756
     38 H         123.3491  152.0415  148.5501 H       1  UNL111      0.0876
     39 H         123.3620  153.7974  148.3092 H       1  UNL111      0.0876
     40 H         115.1076  153.7557  145.2967 H       1  UNL111      0.0735
     41 H         115.9676  153.1530  143.8577 H       1  UNL111      0.0735
     42 H         117.8189  151.1950  144.4009 H       1  UNL111      0.0994
     43 H         116.1142  152.6818  148.0829 H       1  UNL111      0.0994
     44 H         124.0160  150.4915  146.5476 H       1  UNL111      0.0924
     45 H         124.9602  154.7210  146.7180 H       1  UNL111      0.0924
     46 H         115.2005  156.0706  144.3680 H       1  UNL111      0.0319
     47 H         114.3790  154.9528  143.2627 H       1  UNL111      0.0319
     48 H         116.0452  155.4633  142.9354 H       1  UNL111      0.0319
     49 H         120.0690  157.7279  148.0047 H       1  UNL111      0.1103
     50 H         119.4332  156.7607  149.3521 H       1  UNL111      0.1103
     51 H         118.3401  157.3250  148.0339 H       1  UNL111      0.1103
     52 H         116.6622  149.0347  144.7512 H       1  UNL111      0.0890
     53 H         114.9713  150.5130  148.4159 H       1  UNL111      0.0890
     54 H         115.2463  148.6913  146.7565 H       1  UNL111      0.0876
     55 H         125.7347  150.2014  144.8101 H       1  UNL111      0.0880
     56 H         126.6732  154.3846  144.9837 H       1  UNL111      0.0880
     57 H         127.0614  152.1367  144.0239 H       1  UNL111      0.0874
@<TRIPOS>UNITY_ATOM_ATTR
4 1
charge 1
@<TRIPOS>BOND
     1     1    11    1
     2     1    22    1
     3     2    11    2
     4     3    14    2
     5     4     9    1
     6     4    10    1
     7     4    12    1
     8     5     6    1
     9     5    13    1
    10     5    14   am
    11     6     7    1
    12     6     8    1
    13     6    11    1
    14     7     9    1
    15     8    10    1
    16    12    15    1
    17    13    17   ar
    18    13    18   ar
    19    14    16    1
    20    15    19   ar
    21    15    20   ar
    22    16    21    1
    23    17    23   ar
    24    18    24   ar
    25    19    26   ar
    26    20    27   ar
    27    23    25   ar
    28    24    25   ar
    29    26    28   ar
    30    27    28   ar
    31     4    29    1
    32     7    30    1
    33     7    31    1
    34     8    32    1
    35     8    33    1
    36     9    34    1
    37     9    35    1
    38    10    36    1
    39    10    37    1
    40    12    38    1
    41    12    39    1
    42    16    40    1
    43    16    41    1
    44    17    42    1
    45    18    43    1
    46    19    44    1
    47    20    45    1
    48    21    46    1
    49    21    47    1
    50    21    48    1
    51    22    49    1
    52    22    50    1
    53    22    51    1
    54    23    52    1
    55    24    53    1
    56    25    54    1
    57    26    55    1
    58    27    56    1
    59    28    57    1
@<TRIPOS>MOLECULE
12298146
 52 54 0 0 0
SMALL
GASTEIGER

@<TRIPOS>ATOM
      1 O         117.0856  155.5297  145.9694 O.3     1  UNL111     -0.5247
      2 O         118.5468  155.1184  147.6876 O.2     1  UNL111     -0.3281
      3 N         121.0990  152.8168  146.2529 N.4     1  UNL111      0.4277
      4 N         116.9823  152.8521  145.3586 N.pl3   1  UNL111     -0.3363
      5 C         118.2019  153.3933  145.9951 C.3     1  UNL111      0.1204
      6 C         118.7681  152.3457  146.9774 C.3     1  UNL111     -0.0033
      7 C         119.2261  153.6359  144.8648 C.3     1  UNL111     -0.0033
      8 C         120.1882  152.6254  147.4423 C.3     1  UNL111     -0.0308
      9 C         120.6212  153.9490  145.3821 C.3     1  UNL111     -0.0308
     10 C         122.5448  152.9881  146.7166 C.3     1  UNL111     -0.0356
     11 C         117.9480  154.7560  146.6809 C.2     1  UNL111      0.2443
     12 C         123.5312  152.7757  145.5647 C.3     1  UNL111     -0.0312
     13 C         115.8046  152.4492  145.9671 C.3     1  UNL111     -0.0251
     14 C         124.9469  152.7336  146.0773 C.3     1  UNL111     -0.0753
     15 C         114.8860  151.7194  145.1949 C.3     1  UNL111     -0.0601
     16 C         115.4913  152.6476  147.3148 C.3     1  UNL111     -0.0601
     17 C         116.7816  156.7923  146.5672 C.3     1  UNL111      0.0468
     18 C         125.6623  153.9208  146.2879 C.3     1  UNL111     -0.0811
     19 C         125.5550  151.5077  146.3826 C.3     1  UNL111     -0.0811
     20 C         113.6973  151.2234  145.7385 C.3     1  UNL111     -0.0793
     21 C         114.3008  152.1564  147.8661 C.3     1  UNL111     -0.0793
     22 C         113.4042  151.4433  147.0782 C.3     1  UNL111     -0.0845
     23 C         126.9626  153.8800  146.7928 C.3     1  UNL111     -0.0857
     24 C         126.8555  151.4718  146.8870 C.3     1  UNL111     -0.0857
     25 C         127.5579  152.6569  147.0930 C.3     1  UNL111     -0.0868
     26 H         121.0692  151.9433  145.7064 H       1  UNL111      0.1325
     27 H         116.8670  153.0368  144.3634 H       1  UNL111      0.1777
     28 H         118.7497  151.3555  146.5004 H       1  UNL111      0.0639
     29 H         118.1442  152.2604  147.8727 H       1  UNL111      0.0639
     30 H         118.8963  154.4593  144.2179 H       1  UNL111      0.0639
     31 H         119.2809  152.7484  144.2185 H       1  UNL111      0.0639
     32 H         120.2756  153.5115  148.0768 H       1  UNL111      0.0751
     33 H         120.5660  151.7622  148.0019 H       1  UNL111      0.0751
     34 H         121.3098  154.0349  144.5373 H       1  UNL111      0.0751
     35 H         120.6618  154.8719  145.9698 H       1  UNL111      0.0751
     36 H         122.7136  152.2367  147.4971 H       1  UNL111      0.0751
     37 H         122.6332  153.9847  147.1644 H       1  UNL111      0.0751
     38 H         123.4477  153.5763  144.8209 H       1  UNL111      0.0589
     39 H         123.3049  151.8420  145.0347 H       1  UNL111      0.0589
     40 H         115.0918  151.5168  144.1460 H       1  UNL111      0.0986
     41 H         116.1373  153.2131  147.9763 H       1  UNL111      0.0986
     42 H         116.0253  157.2859  145.9509 H       1  UNL111      0.1103
     43 H         117.6756  157.4226  146.5944 H       1  UNL111      0.1103
     44 H         116.3736  156.6533  147.5733 H       1  UNL111      0.1103
     45 H         125.2255  154.8894  146.0548 H       1  UNL111      0.0893
     46 H         125.0329  150.5663  146.2254 H       1  UNL111      0.0893
     47 H         113.0052  150.6637  145.1143 H       1  UNL111      0.0890
     48 H         114.0726  152.3362  148.9141 H       1  UNL111      0.0890
     49 H         112.4805  151.0620  147.5063 H       1  UNL111      0.0876
     50 H         127.5182  154.8024  146.9482 H       1  UNL111      0.0876
     51 H         127.3272  150.5185  147.1157 H       1  UNL111      0.0876
     52 H         128.5735  152.6268  147.4816 H       1  UNL111      0.0874
@<TRIPOS>UNITY_ATOM_ATTR
3 1
charge 1
@<TRIPOS>BOND
     1     1    11    1
     2     1    17    1
     3     2    11    2
     4     3     8    1
     5     3     9    1
     6     3    10    1
     7     4     5    1
     8     4    13    1
     9     5     6    1
    10     5     7    1
    11     5    11    1
    12     6     8    1
    13     7     9    1
    14    10    12    1
    15    12    14    1
    16    13    15   ar
    17    13    16   ar
    18    14    18   ar
    19    14    19   ar
    20    15    20   ar
    21    16    21   ar
    22    18    23   ar
    23    19    24   ar
    24    20    22   ar
    25    21    22   ar
    26    23    25   ar
    27    24    25   ar
    28     3    26    1
    29     4    27    1
    30     6    28    1
    31     6    29    1
    32     7    30    1
    33     7    31    1
    34     8    32    1
    35     8    33    1
    36     9    34    1
    37     9    35    1
    38    10    36    1
    39    10    37    1
    40    12    38    1
    41    12    39    1
    42    15    40    1
    43    16    41    1
    44    17    42    1
    45    17    43    1
    46    17    44    1
    47    18    45    1
    48    19    46    1
    49    20    47    1
    50    21    48    1
    51    22    49    1
    52    23    50    1
    53    24    51    1
    54    25    52    1
