@<TRIPOS>MOLECULE
5284371
 44 48 0 0 0
SMALL
GASTEIGER

@<TRIPOS>ATOM
      1 O         118.3581  152.0967  147.7273 O.3     1  UNL11      -0.4811
      2 O         117.9142  150.5616  145.6492 O.3     1  UNL11      -0.3841
      3 O         116.2352  153.8803  147.1836 O.3     1  UNL11      -0.4914
      4 N         123.1287  153.8882  146.8916 N.4     1  UNL11       0.2359
      5 C         120.6554  152.3673  147.0542 C.3     1  UNL11       0.0553
      6 C         121.7512  151.9917  146.0510 C.3     1  UNL11       0.0339
      7 C         122.4371  153.3252  145.6226 C.3     1  UNL11      -0.0097
      8 C         119.5563  151.3284  147.3549 C.3     1  UNL11       0.1402
      9 C         121.3180  152.9280  148.3335 C.3     1  UNL11       0.0015
     10 C         119.7573  153.4167  146.4951 C.ar    1  UNL11       0.0120
     11 C         121.4670  154.3557  144.9631 C.3     1  UNL11       0.0165
     12 C         122.1983  154.1482  148.0578 C.3     1  UNL11      -0.0309
     13 C         120.0998  154.3952  145.5851 C.ar    1  UNL11      -0.0345
     14 C         119.2186  150.3500  146.1834 C.3     1  UNL11       0.1110
     15 C         121.2649  151.1352  144.9197 C.2     1  UNL11      -0.0761
     16 C         118.4738  153.2526  146.9804 C.ar    1  UNL11       0.1666
     17 C         120.1470  150.4000  145.0042 C.2     1  UNL11      -0.0558
     18 C         124.0271  155.0675  146.6227 C.3     1  UNL11      -0.0428
     19 C         119.0958  155.2937  145.2258 C.ar    1  UNL11      -0.0544
     20 C         117.4613  154.1302  146.6462 C.ar    1  UNL11       0.1618
     21 C         117.7934  155.1728  145.7683 C.ar    1  UNL11      -0.0160
     22 C         115.1566  154.6922  146.7361 C.3     1  UNL11       0.0790
     23 H         117.3712  150.9582  146.3583 H       1  UNL11       0.2104
     24 H         123.7706  153.1467  147.2045 H       1  UNL11       0.2034
     25 H         122.5059  151.3738  146.5605 H       1  UNL11       0.0408
     26 H         123.2605  153.1137  144.9291 H       1  UNL11       0.0860
     27 H         119.8435  150.7274  148.2272 H       1  UNL11       0.0772
     28 H         121.9311  152.1405  148.7917 H       1  UNL11       0.0327
     29 H         120.5692  153.2050  149.0869 H       1  UNL11       0.0327
     30 H         121.3324  154.0574  143.9149 H       1  UNL11       0.0368
     31 H         121.8991  155.3604  144.9516 H       1  UNL11       0.0368
     32 H         121.6128  155.0442  147.8288 H       1  UNL11       0.0815
     33 H         122.8283  154.3631  148.9280 H       1  UNL11       0.0815
     34 H         119.2293  149.3283  146.5805 H       1  UNL11       0.0675
     35 H         121.8667  151.0610  144.0152 H       1  UNL11       0.0575
     36 H         119.8585  149.7751  144.1588 H       1  UNL11       0.0596
     37 H         123.4142  155.9493  146.4252 H       1  UNL11       0.0778
     38 H         124.6634  154.8247  145.7682 H       1  UNL11       0.0778
     39 H         124.6435  155.2242  147.5122 H       1  UNL11       0.0778
     40 H         119.2892  156.0837  144.5018 H       1  UNL11       0.0622
     41 H         117.0475  155.8969  145.4508 H       1  UNL11       0.0655
     42 H         114.2435  154.3323  147.2200 H       1  UNL11       0.0660
     43 H         115.0175  154.6041  145.6534 H       1  UNL11       0.0660
     44 H         115.3022  155.7362  147.0320 H       1  UNL11       0.0660
@<TRIPOS>UNITY_ATOM_ATTR
4 1
charge 1
@<TRIPOS>BOND
     1     1     8    1
     2     1    16    1
     3     2    14    1
     4     3    20    1
     5     3    22    1
     6     4     7    1
     7     4    12    1
     8     4    18    1
     9     5     6    1
    10     5     8    1
    11     5     9    1
    12     5    10    1
    13     6     7    1
    14     6    15    1
    15     7    11    1
    16     8    14    1
    17     9    12    1
    18    10    13   ar
    19    10    16   ar
    20    11    13    1
    21    13    19   ar
    22    14    17    1
    23    15    17    2
    24    16    20   ar
    25    19    21   ar
    26    20    21   ar
    27     2    23    1
    28     4    24    1
    29     6    25    1
    30     7    26    1
    31     8    27    1
    32     9    28    1
    33     9    29    1
    34    11    30    1
    35    11    31    1
    36    12    32    1
    37    12    33    1
    38    14    34    1
    39    15    35    1
    40    17    36    1
    41    18    37    1
    42    18    38    1
    43    18    39    1
    44    19    40    1
    45    21    41    1
    46    22    42    1
    47    22    43    1
    48    22    44    1
@<TRIPOS>MOLECULE
5492619
 47 51 0 0 0
SMALL
GASTEIGER

@<TRIPOS>ATOM
      1 O         118.4091  152.4221  147.6430 O.3     1  UNL11      -0.4811
      2 O         117.7497  150.9297  145.4960 O.3     1  UNL11      -0.3721
      3 O         116.6043  154.5413  147.0856 O.3     1  UNL11      -0.4914
      4 N         123.3844  153.4383  146.8555 N.4     1  UNL11       0.2359
      5 C         120.7077  152.3069  146.9749 C.3     1  UNL11       0.0553
      6 C         121.7545  151.7595  146.0007 C.3     1  UNL11       0.0339
      7 C         122.6428  152.9692  145.5764 C.3     1  UNL11      -0.0097
      8 C         119.4513  151.4585  147.2624 C.3     1  UNL11       0.1404
      9 C         121.4227  152.7730  148.2649 C.3     1  UNL11       0.0015
     10 C         119.9938  153.4775  146.3899 C.ar    1  UNL11       0.0120
     11 C         121.8535  154.1241  144.8831 C.3     1  UNL11       0.0165
     12 C         122.4792  153.8460  147.9993 C.3     1  UNL11      -0.0309
     13 C         118.9872  150.5263  146.0872 C.3     1  UNL11       0.1141
     14 C         120.5000  154.3829  145.4805 C.ar    1  UNL11      -0.0345
     15 C         121.1684  150.9764  144.8657 C.2     1  UNL11      -0.0761
     16 C         118.6981  153.5267  146.8694 C.ar    1  UNL11       0.1666
     17 C         119.9484  150.4251  144.9291 C.2     1  UNL11      -0.0555
     18 C         119.6579  155.4290  145.1075 C.ar    1  UNL11      -0.0544
     19 C         124.4516  154.4695  146.5972 C.3     1  UNL11      -0.0428
     20 C         117.8491  154.5623  146.5330 C.ar    1  UNL11       0.1618
     21 C         118.3517  155.5275  145.6459 C.ar    1  UNL11      -0.0160
     22 C         116.6120  150.3992  146.1659 C.3     1  UNL11       0.0374
     23 C         115.6870  155.5358  146.6496 C.3     1  UNL11       0.0790
     24 H         123.9021  152.6135  147.1887 H       1  UNL11       0.2034
     25 H         122.3963  151.0401  146.5313 H       1  UNL11       0.0408
     26 H         123.4398  152.6271  144.9044 H       1  UNL11       0.0860
     27 H         119.6345  150.8211  148.1371 H       1  UNL11       0.0772
     28 H         121.9024  151.9065  148.7393 H       1  UNL11       0.0327
     29 H         120.7106  153.1651  149.0025 H       1  UNL11       0.0327
     30 H         121.6913  153.8327  143.8370 H       1  UNL11       0.0368
     31 H         122.4354  155.0501  144.8654 H       1  UNL11       0.0368
     32 H         122.0386  154.8169  147.7517 H       1  UNL11       0.0815
     33 H         123.1164  153.9739  148.8813 H       1  UNL11       0.0815
     34 H         118.8800  149.5071  146.4836 H       1  UNL11       0.0678
     35 H         121.7710  150.8022  143.9757 H       1  UNL11       0.0575
     36 H         119.5881  149.8458  144.0789 H       1  UNL11       0.0596
     37 H         119.9820  156.1730  144.3818 H       1  UNL11       0.0622
     38 H         123.9794  155.4296  146.3792 H       1  UNL11       0.0778
     39 H         125.0628  154.1263  145.7590 H       1  UNL11       0.0778
     40 H         125.0658  154.5438  147.4988 H       1  UNL11       0.0778
     41 H         117.7378  156.3643  145.3231 H       1  UNL11       0.0655
     42 H         115.7151  150.8235  145.7070 H       1  UNL11       0.0524
     43 H         116.6156  150.6543  147.2289 H       1  UNL11       0.0524
     44 H         116.5808  149.3118  146.0464 H       1  UNL11       0.0524
     45 H         114.7308  155.3515  147.1485 H       1  UNL11       0.0660
     46 H         115.5176  155.4727  145.5695 H       1  UNL11       0.0660
     47 H         116.0261  156.5361  146.9382 H       1  UNL11       0.0660
@<TRIPOS>UNITY_ATOM_ATTR
4 1
charge 1
@<TRIPOS>BOND
     1     1     8    1
     2     1    16    1
     3     2    13    1
     4     2    22    1
     5     3    20    1
     6     3    23    1
     7     4     7    1
     8     4    12    1
     9     4    19    1
    10     5     6    1
    11     5     8    1
    12     5     9    1
    13     5    10    1
    14     6     7    1
    15     6    15    1
    16     7    11    1
    17     8    13    1
    18     9    12    1
    19    10    14   ar
    20    10    16   ar
    21    11    14    1
    22    13    17    1
    23    14    18   ar
    24    15    17    2
    25    16    20   ar
    26    18    21   ar
    27    20    21   ar
    28     4    24    1
    29     6    25    1
    30     7    26    1
    31     8    27    1
    32     9    28    1
    33     9    29    1
    34    11    30    1
    35    11    31    1
    36    12    32    1
    37    12    33    1
    38    13    34    1
    39    15    35    1
    40    17    36    1
    41    18    37    1
    42    19    38    1
    43    19    39    1
    44    19    40    1
    45    21    41    1
    46    22    42    1
    47    22    43    1
    48    22    44    1
    49    23    45    1
    50    23    46    1
    51    23    47    1
@<TRIPOS>MOLECULE
553916
 56 60 0 0 0
SMALL
GASTEIGER

@<TRIPOS>ATOM
      1 SI        115.4454  152.3924  146.2122 Si      1  UNL11       0.0000
      2 O         119.3308  154.4823  147.2535 O.3     1  UNL11       0.0000
      3 O         117.0650  151.9932  146.4091 O.3     1  UNL11       0.0000
      4 O         120.3733  157.2444  146.3762 O.3     1  UNL11       0.0000
      5 N         122.9143  150.7347  146.9070 N.4     1  UNL11       1.0000
      6 C         120.5327  152.4350  146.8388 C.3     1  UNL11       0.0000
      7 C         120.6594  151.2382  145.8908 C.3     1  UNL11       0.0000
      8 C         119.1317  153.0375  147.0518 C.3     1  UNL11       0.0000
      9 C         122.1755  151.0676  145.5879 C.3     1  UNL11       0.0000
     10 C         121.2295  152.1087  148.1782 C.3     1  UNL11       0.0000
     11 C         121.1749  153.6358  146.2251 C.ar    1  UNL11       0.0000
     12 C         122.8349  152.3143  144.9172 C.3     1  UNL11       0.0000
     13 C         122.7024  151.7436  148.0156 C.3     1  UNL11       0.0000
     14 C         118.1171  152.8159  145.8883 C.3     1  UNL11       0.0000
     15 C         122.2839  153.6294  145.3955 C.ar    1  UNL11       0.0000
     16 C         119.7991  151.3763  144.6653 C.2     1  UNL11       0.0000
     17 C         120.4703  154.7832  146.5488 C.ar    1  UNL11       0.0000
     18 C         118.6618  152.0849  144.6842 C.2     1  UNL11       0.0000
     19 C         122.7564  154.8668  144.9677 C.ar    1  UNL11       0.0000
     20 C         122.7007  149.3131  147.3670 C.3     1  UNL11       0.0000
     21 C         120.9236  156.0213  146.1387 C.ar    1  UNL11       0.0000
     22 C         122.0924  156.0478  145.3578 C.ar    1  UNL11       0.0000
     23 C         114.8126  151.7167  144.5776 C.3     1  UNL11       0.0000
     24 C         115.1431  154.2443  146.2615 C.3     1  UNL11       0.0000
     25 C         114.4451  151.6082  147.6027 C.3     1  UNL11       0.0000
     26 C         119.1053  157.2758  147.0190 C.3     1  UNL11       0.0000
     27 H         123.9188  150.7807  146.6863 H       1  UNL11       0.0000
     28 H         120.2946  150.3331  146.3938 H       1  UNL11       0.0000
     29 H         118.6969  152.6629  147.9876 H       1  UNL11       0.0000
     30 H         122.3492  150.2021  144.9366 H       1  UNL11       0.0000
     31 H         120.7026  151.2749  148.6604 H       1  UNL11       0.0000
     32 H         121.1605  152.9532  148.8764 H       1  UNL11       0.0000
     33 H         122.6412  152.2557  143.8382 H       1  UNL11       0.0000
     34 H         123.9224  152.2935  145.0535 H       1  UNL11       0.0000
     35 H         123.3139  152.6173  147.7685 H       1  UNL11       0.0000
     36 H         123.1104  151.3174  148.9388 H       1  UNL11       0.0000
     37 H         117.7459  153.7920  145.5523 H       1  UNL11       0.0000
     38 H         120.0682  150.8396  143.7573 H       1  UNL11       0.0000
     39 H         118.0474  152.1244  143.7858 H       1  UNL11       0.0000
     40 H         123.6204  154.9429  144.3103 H       1  UNL11       0.0000
     41 H         121.6726  149.1953  147.7142 H       1  UNL11       0.0000
     42 H         123.4061  149.1150  148.1785 H       1  UNL11       0.0000
     43 H         122.9118  148.6476  146.5261 H       1  UNL11       0.0000
     44 H         122.4720  157.0088  145.0112 H       1  UNL11       0.0000
     45 H         115.3418  152.1763  143.7380 H       1  UNL11       0.0000
     46 H         113.7438  151.9197  144.4631 H       1  UNL11       0.0000
     47 H         114.9636  150.6342  144.5271 H       1  UNL11       0.0000
     48 H         115.5850  154.7383  145.3912 H       1  UNL11       0.0000
     49 H         115.5764  154.6834  147.1648 H       1  UNL11       0.0000
     50 H         114.0696  154.4563  146.2586 H       1  UNL11       0.0000
     51 H         114.5810  150.5228  147.6081 H       1  UNL11       0.0000
     52 H         113.3796  151.8230  147.4792 H       1  UNL11       0.0000
     53 H         114.7664  152.0008  148.5720 H       1  UNL11       0.0000
     54 H         118.7848  158.3212  147.0684 H       1  UNL11       0.0000
     55 H         119.1741  156.9040  148.0460 H       1  UNL11       0.0000
     56 H         118.3528  156.7298  146.4403 H       1  UNL11       0.0000
@<TRIPOS>UNITY_ATOM_ATTR
5 1
charge 1
@<TRIPOS>BOND
     1     1     3    1
     2     1    23    1
     3     1    24    1
     4     1    25    1
     5     2     8    1
     6     2    17    1
     7     3    14    1
     8     4    21    1
     9     4    26    1
    10     5     9    1
    11     5    13    1
    12     5    20    1
    13     6     7    1
    14     6     8    1
    15     6    10    1
    16     6    11    1
    17     7     9    1
    18     7    16    1
    19     8    14    1
    20     9    12    1
    21    10    13    1
    22    11    15   ar
    23    11    17   ar
    24    12    15    1
    25    14    18    1
    26    15    19   ar
    27    16    18    2
    28    17    21   ar
    29    19    22   ar
    30    21    22   ar
    31     5    27    1
    32     7    28    1
    33     8    29    1
    34     9    30    1
    35    10    31    1
    36    10    32    1
    37    12    33    1
    38    12    34    1
    39    13    35    1
    40    13    36    1
    41    14    37    1
    42    16    38    1
    43    18    39    1
    44    19    40    1
    45    20    41    1
    46    20    42    1
    47    20    43    1
    48    22    44    1
    49    23    45    1
    50    23    46    1
    51    23    47    1
    52    24    48    1
    53    24    49    1
    54    24    50    1
    55    25    51    1
    56    25    52    1
    57    25    53    1
    58    26    54    1
    59    26    55    1
    60    26    56    1
@<TRIPOS>MOLECULE
5489029
 63 68 0 0 0
SMALL
GASTEIGER

@<TRIPOS>ATOM
      1 O         120.4742  152.1672  145.4202 O.2     1  UNL11      -0.4810
      2 O         118.7282  152.8148  147.3527 O.3     1  UNL11      -0.3377
      3 O         121.0968  149.4694  145.9237 O.2     1  UNL11      -0.4914
      4 O         116.8563  153.9594  146.5797 O.3     1  UNL11      -0.3369
      5 O         117.3656  150.3365  146.9255 O.3     1  UNL11      -0.3841
      6 O         114.5216  150.5557  146.6543 O.3     1  UNL11      -0.3864
      7 O         113.7315  152.7630  144.9882 O.3     1  UNL11      -0.3862
      8 O         115.7916  156.2929  145.0402 O.co2   1  UNL11      -0.5471
      9 O         114.2321  155.6570  146.5903 O.2     1  UNL11      -0.5471
     10 N         124.3209  155.6597  145.5754 N.4     1  UNL11       0.2359
     11 C         121.8986  154.0817  145.8067 C.3     1  UNL11       0.0553
     12 C         122.2447  155.1511  146.8557 C.3     1  UNL11       0.0339
     13 C         120.4320  153.6041  145.7244 C.3     1  UNL11       0.1405
     14 C         123.7982  155.1921  146.9544 C.3     1  UNL11      -0.0097
     15 C         122.4493  154.4829  144.4239 C.3     1  UNL11       0.0015
     16 C         122.5126  152.7853  146.2302 C.3     1  UNL11       0.0120
     17 C         124.4363  153.8397  147.4048 C.3     1  UNL11       0.0165
     18 C         123.9514  154.7443  144.4307 C.3     1  UNL11      -0.0309
     19 C         119.5795  153.9054  146.9929 C.3     1  UNL11       0.1175
     20 C         123.7004  152.6210  146.9189 C.3     1  UNL11      -0.0345
     21 C         121.5595  154.9002  148.1736 C.2     1  UNL11      -0.0761
     22 C         121.6633  151.7353  145.9491 C.3     1  UNL11       0.1666
     23 C         120.3606  154.3001  148.2224 C.2     1  UNL11      -0.0554
     24 C         124.0720  151.3135  147.2346 C.3     1  UNL11      -0.0544
     25 C         125.7816  156.0146  145.5643 C.3     1  UNL11      -0.0428
     26 C         122.0027  150.4310  146.2554 C.3     1  UNL11       0.1618
     27 C         123.2367  150.2263  146.8883 C.3     1  UNL11      -0.0160
     28 C         117.5726  152.7491  146.5016 C.3     1  UNL11       0.1890
     29 C         116.6843  151.6052  146.9987 C.3     1  UNL11       0.1342
     30 C         115.4273  151.5483  146.1339 C.3     1  UNL11       0.1144
     31 C         114.7171  152.9107  146.0240 C.3     1  UNL11       0.1150
     32 C         115.7252  154.0094  145.6770 C.3     1  UNL11       0.1290
     33 C         121.2866  148.1805  146.4910 C.3     1  UNL11       0.0790
     34 C         115.1663  155.4547  145.7650 C.3     1  UNL11       0.0731
     35 H         118.2837  150.5268  147.2065 H       1  UNL11       0.2101
     36 H         115.0863  149.7785  146.8338 H       1  UNL11       0.2100
     37 H         113.0927  152.1191  145.3468 H       1  UNL11       0.2100
     38 H         123.8356  156.5493  145.3883 H       1  UNL11       0.2034
     39 H         121.8940  156.1341  146.5095 H       1  UNL11       0.0408
     40 H         119.9244  154.0726  144.8710 H       1  UNL11       0.0772
     41 H         124.1050  155.9827  147.6506 H       1  UNL11       0.0860
     42 H         121.9327  155.3916  144.0873 H       1  UNL11       0.0327
     43 H         122.2355  153.7127  143.6713 H       1  UNL11       0.0327
     44 H         124.4043  153.8141  148.5023 H       1  UNL11       0.0368
     45 H         125.4897  153.7738  147.1186 H       1  UNL11       0.0368
     46 H         124.5390  153.8260  144.5283 H       1  UNL11       0.0815
     47 H         124.2519  155.2479  143.5053 H       1  UNL11       0.0815
     48 H         118.9796  154.8008  146.7799 H       1  UNL11       0.0679
     49 H         122.0115  155.2467  149.1000 H       1  UNL11       0.0575
     50 H         119.8521  154.1707  149.1762 H       1  UNL11       0.0596
     51 H         124.9893  151.1138  147.7853 H       1  UNL11       0.0622
     52 H         126.3759  155.1004  145.6230 H       1  UNL11       0.0778
     53 H         125.9811  156.6725  146.4138 H       1  UNL11       0.0778
     54 H         125.9892  156.5429  144.6298 H       1  UNL11       0.0778
     55 H         123.5664  149.2273  147.1598 H       1  UNL11       0.0655
     56 H         117.9041  152.5563  145.4738 H       1  UNL11       0.0938
     57 H         116.4141  151.7507  148.0515 H       1  UNL11       0.0671
     58 H         115.6894  151.1913  145.1289 H       1  UNL11       0.0648
     59 H         114.1906  153.1273  146.9611 H       1  UNL11       0.0650
     60 H         116.0879  153.8703  144.6490 H       1  UNL11       0.0686
     61 H         120.4195  147.5674  146.2272 H       1  UNL11       0.0660
     62 H         121.3399  148.2306  147.5839 H       1  UNL11       0.0660
     63 H         122.1764  147.6974  146.0750 H       1  UNL11       0.0660
@<TRIPOS>UNITY_ATOM_ATTR
8 1
charge -1
10 1
charge 1
@<TRIPOS>BOND
     1     1    13    1
     2     1    22    1
     3     2    19    1
     4     2    28    1
     5     3    26    1
     6     3    33    1
     7     4    28    1
     8     4    32    1
     9     5    29    1
    10     6    30    1
    11     7    31    1
    12     8    34    1
    13     9    34    2
    14    10    14    1
    15    10    18    1
    16    10    25    1
    17    11    12    1
    18    11    13    1
    19    11    15    1
    20    11    16    1
    21    12    14    1
    22    12    21    1
    23    13    19    1
    24    14    17    1
    25    15    18    1
    26    16    20   ar
    27    16    22   ar
    28    17    20    1
    29    19    23    1
    30    20    24   ar
    31    21    23    2
    32    22    26   ar
    33    24    27   ar
    34    26    27   ar
    35    28    29    1
    36    29    30    1
    37    30    31    1
    38    31    32    1
    39    32    34    1
    40     5    35    1
    41     6    36    1
    42     7    37    1
    43    10    38    1
    44    12    39    1
    45    13    40    1
    46    14    41    1
    47    15    42    1
    48    15    43    1
    49    17    44    1
    50    17    45    1
    51    18    46    1
    52    18    47    1
    53    19    48    1
    54    21    49    1
    55    23    50    1
    56    24    51    1
    57    25    52    1
    58    25    53    1
    59    25    54    1
    60    27    55    1
    61    28    56    1
    62    29    57    1
    63    30    58    1
    64    31    59    1
    65    32    60    1
    66    33    61    1
    67    33    62    1
    68    33    63    1
@<TRIPOS>MOLECULE
11066604
 26 30 0 0 0
SMALL
GASTEIGER

@<TRIPOS>ATOM
      1 O         118.0164  152.0718  147.1687 O.2     1  UNL11      -0.4731
      2 O         118.5985  149.4178  146.3797 O.3     1  UNL11      -0.2144
      3 O         115.9030  153.9153  146.4806 O.2     1  UNL11      -0.4684
      4 N         123.3279  153.5952  146.6449 N.4     1  UNL11       0.2565
      5 C         120.3724  152.5458  147.0215 C.3     1  UNL11       0.0759
      6 C         121.3806  152.3284  145.8208 C.3     1  UNL11       0.0790
      7 C         122.2529  153.5148  145.6239 C.3     1  UNL11       0.0627
      8 C         119.3111  151.4815  147.2271 C.3     1  UNL11       0.2046
      9 C         121.2531  152.8206  148.1715 C.3     1  UNL11       0.0691
     10 C         119.5124  153.7167  146.6527 C.2     1  UNL11       0.0146
     11 C         121.3375  154.6494  145.5487 C.3     1  UNL11       0.0814
     12 C         122.6611  153.3364  147.9408 C.3     1  UNL11       0.1042
     13 C         119.9727  154.8368  145.9584 C.2     1  UNL11      -0.0172
     14 C         119.5597  150.1813  146.5856 C.3     1  UNL11       0.2136
     15 C         121.4749  151.0022  145.3570 C.2     1  UNL11      -0.0223
     16 C         118.1751  153.3903  146.7835 C.2     1  UNL11       0.1680
     17 C         120.6903  150.1692  145.7127 C.2     1  UNL11       0.0054
     18 C         124.1029  154.8588  146.5822 C.3     1  UNL11      -0.0413
     19 C         119.0373  155.7369  145.4905 C.2     1  UNL11      -0.0011
     20 C         117.2159  154.2811  146.3562 C.2     1  UNL11       0.1720
     21 C         117.6700  155.4713  145.7369 C.2     1  UNL11       0.0397
     22 C         114.9927  154.9783  146.3610 C.3     1  UNL11       0.2526
     23 H         123.9630  152.7985  146.4841 H       1  UNL11       0.2050
     24 H         123.4660  155.7065  146.8538 H       1  UNL11       0.0778
     25 H         124.5016  154.9737  145.5698 H       1  UNL11       0.0778
     26 H         124.9322  154.7762  147.2913 H       1  UNL11       0.0778
@<TRIPOS>UNITY_ATOM_ATTR
4 1
charge 1
@<TRIPOS>BOND
     1     1     8    1
     2     1    16    1
     3     2    14    1
     4     3    20    1
     5     3    22    1
     6     4     7    1
     7     4    12    1
     8     4    18    1
     9     5     6    1
    10     5     8    1
    11     5     9    1
    12     5    10    1
    13     6     7    1
    14     6    15    1
    15     7    11    1
    16     8    14    1
    17     9    12    1
    18    10    13    2
    19    10    16    1
    20    11    13    1
    21    13    19    1
    22    14    17    1
    23    15    17    2
    24    16    20    2
    25    19    21    2
    26    20    21    1
    27     4    23    1
    28    18    24    1
    29    18    25    1
    30    18    26    1
@<TRIPOS>MOLECULE
416172
 49 53 0 0 0
SMALL
GASTEIGER

@<TRIPOS>ATOM
      1 O         119.2761  151.6606  147.4668 O.2     1  UNL11      -0.4799
      2 O         116.6143  153.7400  146.9172 O.3     1  UNL11      -0.4536
      3 O         120.3770  149.0998  146.3336 O.2     1  UNL11      -0.4914
      4 O         115.2430  152.6795  145.4107 O.2     1  UNL11      -0.2511
      5 N         122.3964  155.7504  146.9722 N.4     1  UNL11       0.2359
      6 C         120.2127  153.8328  147.0238 C.3     1  UNL11       0.0564
      7 C         120.1323  155.0985  146.1613 C.3     1  UNL11       0.0340
      8 C         121.5865  155.4147  145.6959 C.3     1  UNL11      -0.0097
      9 C         118.9004  153.0817  147.3292 C.3     1  UNL11       0.1512
     10 C         121.0266  154.1355  148.3016 C.3     1  UNL11       0.0015
     11 C         120.8898  152.7367  146.2721 C.3     1  UNL11       0.0121
     12 C         122.2395  154.2739  144.8546 C.3     1  UNL11       0.0165
     13 C         122.4363  154.6434  148.0021 C.3     1  UNL11      -0.0309
     14 C         121.8676  152.8882  145.3047 C.3     1  UNL11      -0.0345
     15 C         117.7828  153.2085  146.2480 C.3     1  UNL11       0.1587
     16 C         119.1353  154.9859  145.0448 C.2     1  UNL11      -0.0751
     17 C         120.3503  151.5134  146.6223 C.3     1  UNL11       0.1666
     18 C         118.0950  154.1426  145.1026 C.2     1  UNL11      -0.0438
     19 C         123.7709  156.3021  146.6941 C.3     1  UNL11      -0.0428
     20 C         122.3624  151.7233  144.7190 C.3     1  UNL11      -0.0544
     21 C         120.8542  150.3503  146.0796 C.3     1  UNL11       0.1618
     22 C         121.8609  150.4648  145.1111 C.3     1  UNL11      -0.0160
     23 C         115.4076  153.3736  146.4021 C.2     1  UNL11       0.3046
     24 C         120.4090  148.7701  147.7204 C.3     1  UNL11       0.0790
     25 C         114.2994  153.9997  147.1924 C.3     1  UNL11       0.0333
     26 H         121.8951  156.5320  147.4171 H       1  UNL11       0.2034
     27 H         119.7817  155.9380  146.7797 H       1  UNL11       0.0408
     28 H         121.5956  156.3421  145.1096 H       1  UNL11       0.0860
     29 H         118.5043  153.3876  148.3059 H       1  UNL11       0.0783
     30 H         121.1072  153.2498  148.9452 H       1  UNL11       0.0327
     31 H         120.4924  154.8921  148.8918 H       1  UNL11       0.0327
     32 H         123.3282  154.3723  144.8218 H       1  UNL11       0.0368
     33 H         121.8811  154.3805  143.8221 H       1  UNL11       0.0368
     34 H         122.8861  155.0639  148.9083 H       1  UNL11       0.0815
     35 H         123.0949  153.8545  147.6254 H       1  UNL11       0.0815
     36 H         117.5613  152.2109  145.8479 H       1  UNL11       0.0817
     37 H         119.2273  155.6412  144.1799 H       1  UNL11       0.0575
     38 H         117.3890  154.1141  144.2717 H       1  UNL11       0.0607
     39 H         124.4213  155.4937  146.3541 H       1  UNL11       0.0778
     40 H         124.1508  156.7297  147.6260 H       1  UNL11       0.0778
     41 H         123.6784  157.0847  145.9372 H       1  UNL11       0.0778
     42 H         123.1129  151.7663  143.9318 H       1  UNL11       0.0622
     43 H         122.2409  149.5632  144.6327 H       1  UNL11       0.0655
     44 H         120.2124  147.6974  147.8111 H       1  UNL11       0.0660
     45 H         119.6320  149.2979  148.2799 H       1  UNL11       0.0660
     46 H         121.3977  148.9665  148.1512 H       1  UNL11       0.0660
     47 H         114.4838  153.8739  148.2627 H       1  UNL11       0.0342
     48 H         113.3563  153.5011  146.9515 H       1  UNL11       0.0342
     49 H         114.2229  155.0603  146.9411 H       1  UNL11       0.0342
@<TRIPOS>UNITY_ATOM_ATTR
5 1
charge 1
@<TRIPOS>BOND
     1     1     9    1
     2     1    17    1
     3     2    15    1
     4     2    23    1
     5     3    21    1
     6     3    24    1
     7     4    23    2
     8     5     8    1
     9     5    13    1
    10     5    19    1
    11     6     7    1
    12     6     9    1
    13     6    10    1
    14     6    11    1
    15     7     8    1
    16     7    16    1
    17     8    12    1
    18     9    15    1
    19    10    13    1
    20    11    14   ar
    21    11    17   ar
    22    12    14    1
    23    14    20   ar
    24    15    18    1
    25    16    18    2
    26    17    21   ar
    27    20    22   ar
    28    21    22   ar
    29    23    25    1
    30     5    26    1
    31     7    27    1
    32     8    28    1
    33     9    29    1
    34    10    30    1
    35    10    31    1
    36    12    32    1
    37    12    33    1
    38    13    34    1
    39    13    35    1
    40    15    36    1
    41    16    37    1
    42    18    38    1
    43    19    39    1
    44    19    40    1
    45    19    41    1
    46    20    42    1
    47    22    43    1
    48    24    44    1
    49    24    45    1
    50    24    46    1
    51    25    47    1
    52    25    48    1
    53    25    49    1
@<TRIPOS>MOLECULE
73852573
 45 50 0 0 0
SMALL
GASTEIGER

@<TRIPOS>ATOM
      1 O         118.5005  155.9409  144.8076 O.3     1  UNL11      -0.3649
      2 O         121.5048  154.0258  147.5604 O.3     1  UNL11      -0.4813
      3 O         121.1912  156.7278  146.8799 O.3     1  UNL11      -0.3854
      4 O         123.7129  152.4529  146.8382 O.3     1  UNL11      -0.4914
      5 N         116.6589  152.0204  146.9251 N.4     1  UNL11       0.2358
      6 C         119.1542  153.4952  147.1654 C.3     1  UNL11       0.0541
      7 C         118.1206  153.8388  146.0770 C.3     1  UNL11       0.0444
      8 C         118.7830  154.5465  144.9176 C.3     1  UNL11       0.0967
      9 C         119.8149  155.5911  145.2715 C.3     1  UNL11       0.1150
     10 C         120.1635  154.6041  147.5747 C.3     1  UNL11       0.1389
     11 C         117.4178  152.5128  145.6716 C.3     1  UNL11      -0.0107
     12 C         120.0548  155.8916  146.7206 C.3     1  UNL11       0.1212
     13 C         118.4608  152.8947  148.4053 C.3     1  UNL11       0.0013
     14 C         120.1061  152.5187  146.5646 C.ar    1  UNL11       0.0118
     15 C         118.3902  151.4175  145.1251 C.3     1  UNL11       0.0163
     16 C         117.5610  151.7027  148.0955 C.3     1  UNL11      -0.0309
     17 C         119.7881  151.5028  145.6792 C.ar    1  UNL11      -0.0345
     18 C         121.4082  152.8427  146.8777 C.ar    1  UNL11       0.1665
     19 C         115.6801  150.9072  146.6499 C.3     1  UNL11      -0.0428
     20 C         120.8355  150.6958  145.2336 C.ar    1  UNL11      -0.0544
     21 C         122.4678  152.0624  146.4462 C.ar    1  UNL11       0.1618
     22 C         122.1626  150.9606  145.6356 C.ar    1  UNL11      -0.0160
     23 C         124.8168  151.7002  146.3532 C.3     1  UNL11       0.0790
     24 H         121.0502  157.5334  146.3526 H       1  UNL11       0.2101
     25 H         116.0647  152.8072  147.2233 H       1  UNL11       0.2033
     26 H         117.3681  154.5193  146.5008 H       1  UNL11       0.0392
     27 H         118.9249  153.9773  144.0095 H       1  UNL11       0.0628
     28 H         120.6694  155.7228  144.6222 H       1  UNL11       0.0649
     29 H         120.0063  154.9067  148.6185 H       1  UNL11       0.0769
     30 H         116.6399  152.7146  144.9253 H       1  UNL11       0.0858
     31 H         119.1956  156.4589  147.1023 H       1  UNL11       0.0657
     32 H         117.8520  153.6770  148.8785 H       1  UNL11       0.0327
     33 H         119.1996  152.5840  149.1557 H       1  UNL11       0.0327
     34 H         118.4687  151.5677  144.0401 H       1  UNL11       0.0368
     35 H         117.9976  150.4078  145.2733 H       1  UNL11       0.0368
     36 H         118.1295  150.7996  147.8526 H       1  UNL11       0.0815
     37 H         116.9141  151.4839  148.9522 H       1  UNL11       0.0815
     38 H         116.2280  149.9825  146.4587 H       1  UNL11       0.0778
     39 H         115.0708  151.1937  145.7893 H       1  UNL11       0.0778
     40 H         115.0459  150.7978  147.5339 H       1  UNL11       0.0778
     41 H         120.6531  149.8771  144.5392 H       1  UNL11       0.0622
     42 H         122.9450  150.3081  145.2571 H       1  UNL11       0.0655
     43 H         125.7312  152.1563  146.7443 H       1  UNL11       0.0660
     44 H         124.8679  151.7344  145.2599 H       1  UNL11       0.0660
     45 H         124.7780  150.6673  146.7144 H       1  UNL11       0.0660
@<TRIPOS>UNITY_ATOM_ATTR
5 1
charge 1
@<TRIPOS>BOND
     1     1     8    1
     2     1     9    1
     3     2    10    1
     4     2    18    1
     5     3    12    1
     6     4    21    1
     7     4    23    1
     8     5    11    1
     9     5    16    1
    10     5    19    1
    11     6     7    1
    12     6    10    1
    13     6    13    1
    14     6    14    1
    15     7     8    1
    16     7    11    1
    17     8     9    1
    18     9    12    1
    19    10    12    1
    20    11    15    1
    21    13    16    1
    22    14    17   ar
    23    14    18   ar
    24    15    17    1
    25    17    20   ar
    26    18    21   ar
    27    20    22   ar
    28    21    22   ar
    29     3    24    1
    30     5    25    1
    31     7    26    1
    32     8    27    1
    33     9    28    1
    34    10    29    1
    35    11    30    1
    36    12    31    1
    37    13    32    1
    38    13    33    1
    39    15    34    1
    40    15    35    1
    41    16    36    1
    42    16    37    1
    43    19    38    1
    44    19    39    1
    45    19    40    1
    46    20    41    1
    47    22    42    1
    48    23    43    1
    49    23    44    1
    50    23    45    1
@<TRIPOS>MOLECULE
11865406
 44 48 0 0 0
SMALL
GASTEIGER

@<TRIPOS>ATOM
      1 O         121.4257  153.9577  147.8080 O.3     1  UNL11      -0.4811
      2 O         122.1093  155.4115  145.7471 O.3     1  UNL11      -0.3841
      3 O         123.3468  151.8682  147.3164 O.3     1  UNL11      -0.4914
      4 N         116.5081  152.7095  146.8368 N.4     1  UNL11       0.2359
      5 C         119.1318  153.9414  147.0654 C.3     1  UNL11       0.0553
      6 C         118.1192  154.4260  146.0224 C.3     1  UNL11       0.0339
      7 C         117.2979  153.1739  145.5855 C.3     1  UNL11      -0.0097
      8 C         120.3325  154.8526  147.3938 C.3     1  UNL11       0.1402
      9 C         118.3707  153.4747  148.3272 C.3     1  UNL11       0.0015
     10 C         119.9219  152.7909  146.5430 C.ar    1  UNL11       0.0120
     11 C         117.3670  152.3587  148.0338 C.3     1  UNL11      -0.0309
     12 C         118.1628  152.0310  144.9662 C.3     1  UNL11       0.0165
     13 C         119.4983  151.8446  145.6298 C.ar    1  UNL11      -0.0345
     14 C         120.8154  155.7729  146.2261 C.3     1  UNL11       0.1110
     15 C         118.7391  155.2028  144.8984 C.2     1  UNL11      -0.0761
     16 C         121.1988  152.8172  147.0678 C.ar    1  UNL11       0.1666
     17 C         119.9309  155.8070  145.0134 C.2     1  UNL11      -0.0558
     18 C         115.4894  151.6369  146.5504 C.3     1  UNL11      -0.0428
     19 C         120.4002  150.8280  145.3112 C.ar    1  UNL11      -0.0544
     20 C         122.1062  151.8301  146.7554 C.ar    1  UNL11       0.1618
     21 C         121.6884  150.8082  145.8918 C.ar    1  UNL11      -0.0160
     22 C         124.3774  151.9340  146.3311 C.3     1  UNL11       0.0790
     23 H         122.5841  155.0002  146.4951 H       1  UNL11       0.2104
     24 H         115.9460  153.5229  147.1232 H       1  UNL11       0.2034
     25 H         117.4251  155.1342  146.4995 H       1  UNL11       0.0408
     26 H         116.5255  153.4694  144.8644 H       1  UNL11       0.0860
     27 H         120.0900  155.4914  148.2526 H       1  UNL11       0.0772
     28 H         117.8370  154.3321  148.7586 H       1  UNL11       0.0327
     29 H         119.0597  153.1240  149.1065 H       1  UNL11       0.0327
     30 H         117.8537  151.3997  147.8304 H       1  UNL11       0.0815
     31 H         116.6904  152.2264  148.8854 H       1  UNL11       0.0815
     32 H         118.3612  152.2978  143.9197 H       1  UNL11       0.0368
     33 H         117.6195  151.0819  144.9516 H       1  UNL11       0.0368
     34 H         120.9017  156.7954  146.6118 H       1  UNL11       0.0675
     35 H         118.1812  155.3295  143.9719 H       1  UNL11       0.0575
     36 H         120.3175  156.3805  144.1710 H       1  UNL11       0.0596
     37 H         116.0032  150.6884  146.3805 H       1  UNL11       0.0778
     38 H         114.9114  151.9398  145.6739 H       1  UNL11       0.0778
     39 H         114.8323  151.5628  147.4213 H       1  UNL11       0.0778
     40 H         120.1345  150.0495  144.5981 H       1  UNL11       0.0622
     41 H         122.3671  149.9956  145.6423 H       1  UNL11       0.0655
     42 H         125.3127  152.1805  146.8427 H       1  UNL11       0.0660
     43 H         124.1772  152.7219  145.5957 H       1  UNL11       0.0660
     44 H         124.5106  150.9680  145.8342 H       1  UNL11       0.0660
@<TRIPOS>UNITY_ATOM_ATTR
4 1
charge 1
@<TRIPOS>BOND
     1     1     8    1
     2     1    16    1
     3     2    14    1
     4     3    20    1
     5     3    22    1
     6     4     7    1
     7     4    11    1
     8     4    18    1
     9     5     6    1
    10     5     8    1
    11     5     9    1
    12     5    10    1
    13     6     7    1
    14     6    15    1
    15     7    12    1
    16     8    14    1
    17     9    11    1
    18    10    13   ar
    19    10    16   ar
    20    12    13    1
    21    13    19   ar
    22    14    17    1
    23    15    17    2
    24    16    20   ar
    25    19    21   ar
    26    20    21   ar
    27     2    23    1
    28     4    24    1
    29     6    25    1
    30     7    26    1
    31     8    27    1
    32     9    28    1
    33     9    29    1
    34    11    30    1
    35    11    31    1
    36    12    32    1
    37    12    33    1
    38    14    34    1
    39    15    35    1
    40    17    36    1
    41    18    37    1
    42    18    38    1
    43    18    39    1
    44    19    40    1
    45    21    41    1
    46    22    42    1
    47    22    43    1
    48    22    44    1
@<TRIPOS>MOLECULE
416170
 44 48 0 0 0
SMALL
GASTEIGER

@<TRIPOS>ATOM
      1 O         121.5937  152.2823  145.1238 O.3     1  UNL11      -0.4799
      2 O         117.1054  151.0112  147.8073 O.3     1  UNL11      -0.3873
      3 O         124.0410  153.4911  146.5557 O.3     1  UNL11      -0.4914
      4 N         117.1660  154.9173  145.9601 N.4     1  UNL11       0.2358
      5 C         119.3390  153.0080  145.5760 C.3     1  UNL11       0.0554
      6 C         118.1107  152.6300  146.3993 C.3     1  UNL11       0.0454
      7 C         117.5908  153.9221  147.0705 C.3     1  UNL11      -0.0105
      8 C         120.2024  151.8463  145.0489 C.3     1  UNL11       0.1290
      9 C         118.9461  153.9853  144.4494 C.3     1  UNL11       0.0015
     10 C         120.3474  153.6383  146.4709 C.ar    1  UNL11       0.0120
     11 C         118.3800  151.5146  147.4276 C.3     1  UNL11       0.0823
     12 C         118.6378  154.6188  148.0050 C.3     1  UNL11       0.0163
     13 C         118.2533  155.2438  144.9616 C.3     1  UNL11      -0.0309
     14 C         120.0681  154.4460  147.5619 C.ar    1  UNL11      -0.0345
     15 C         121.6248  153.2346  146.1170 C.ar    1  UNL11       0.1669
     16 C         120.0421  150.5584  145.8178 C.2     1  UNL11      -0.0447
     17 C         119.2196  150.4048  146.8695 C.2     1  UNL11      -0.0559
     18 C         115.8572  154.5496  145.3032 C.3     1  UNL11      -0.0428
     19 C         121.1605  154.9576  148.2551 C.ar    1  UNL11      -0.0544
     20 C         122.7220  153.7453  146.7811 C.ar    1  UNL11       0.1618
     21 C         122.4704  154.6237  147.8512 C.ar    1  UNL11      -0.0160
     22 C         124.3655  152.6700  145.4411 C.3     1  UNL11       0.0790
     23 H         117.2460  150.2046  148.3379 H       1  UNL11       0.2102
     24 H         116.9610  155.8033  146.4424 H       1  UNL11       0.2033
     25 H         117.3368  152.2491  145.7181 H       1  UNL11       0.0394
     26 H         116.6797  153.7365  147.6513 H       1  UNL11       0.0858
     27 H         119.9783  151.6363  143.9959 H       1  UNL11       0.0787
     28 H         118.2789  153.4698  143.7463 H       1  UNL11       0.0327
     29 H         119.8252  154.2883  143.8655 H       1  UNL11       0.0327
     30 H         118.8614  151.8877  148.3369 H       1  UNL11       0.0643
     31 H         118.5490  154.1662  149.0010 H       1  UNL11       0.0368
     32 H         118.4094  155.6853  148.1149 H       1  UNL11       0.0368
     33 H         118.9544  155.9170  145.4652 H       1  UNL11       0.0815
     34 H         117.7972  155.8092  144.1416 H       1  UNL11       0.0815
     35 H         120.6546  149.7204  145.4895 H       1  UNL11       0.0606
     36 H         119.2081  149.4447  147.3817 H       1  UNL11       0.0596
     37 H         115.9987  153.6632  144.6823 H       1  UNL11       0.0778
     38 H         115.5419  155.3995  144.6918 H       1  UNL11       0.0778
     39 H         115.1199  154.3687  146.0893 H       1  UNL11       0.0778
     40 H         121.0264  155.5940  149.1279 H       1  UNL11       0.0622
     41 H         123.3156  155.0296  148.4070 H       1  UNL11       0.0655
     42 H         125.4565  152.6338  145.3627 H       1  UNL11       0.0660
     43 H         123.9838  153.0959  144.5073 H       1  UNL11       0.0660
     44 H         124.0129  151.6449  145.5920 H       1  UNL11       0.0660
@<TRIPOS>UNITY_ATOM_ATTR
4 1
charge 1
@<TRIPOS>BOND
     1     1     8    1
     2     1    15    1
     3     2    11    1
     4     3    20    1
     5     3    22    1
     6     4     7    1
     7     4    13    1
     8     4    18    1
     9     5     6    1
    10     5     8    1
    11     5     9    1
    12     5    10    1
    13     6     7    1
    14     6    11    1
    15     7    12    1
    16     8    16    1
    17     9    13    1
    18    10    14   ar
    19    10    15   ar
    20    11    17    1
    21    12    14    1
    22    14    19   ar
    23    15    20   ar
    24    16    17    2
    25    19    21   ar
    26    20    21   ar
    27     2    23    1
    28     4    24    1
    29     6    25    1
    30     7    26    1
    31     8    27    1
    32     9    28    1
    33     9    29    1
    34    11    30    1
    35    12    31    1
    36    12    32    1
    37    13    33    1
    38    13    34    1
    39    16    35    1
    40    17    36    1
    41    18    37    1
    42    18    38    1
    43    18    39    1
    44    19    40    1
    45    21    41    1
    46    22    42    1
    47    22    43    1
    48    22    44    1
@<TRIPOS>MOLECULE
15816738
 46 50 0 0 0
SMALL
GASTEIGER

@<TRIPOS>ATOM
      1 O         122.2441  152.6133  145.0000 O.2     1  UNL111     -0.4811
      2 O         123.1996  150.6078  146.3797 O.3     1  UNL111     -0.3841
      3 O         123.8787  154.9501  145.6624 O.2     1  UNL111     -0.4914
      4 O         115.1904  153.8001  145.4501 O.3     1  UNL111     -0.4535
      5 O         115.3411  153.0154  147.5844 O.2     1  UNL111     -0.2263
      6 N         117.2155  153.0904  146.2418 N.am    1  UNL111     -0.2635
      7 C         119.9448  152.2882  145.7349 C.3     1  UNL111      0.0485
      8 C         119.1020  151.5934  146.8123 C.3     1  UNL111      0.0095
      9 C         118.1063  152.6645  147.3460 C.3     1  UNL111      0.0402
     10 C         121.2231  151.5758  145.2481 C.3     1  UNL111      0.1399
     11 C         119.0315  152.6992  144.5618 C.3     1  UNL111     -0.0231
     12 C         120.6020  153.4926  146.3241 C.3     1  UNL111      0.0116
     13 C         118.8022  153.8999  148.0001 C.3     1  UNL111     -0.0079
     14 C         117.8360  153.5513  144.9983 C.3     1  UNL111      0.0191
     15 C         120.0820  154.3094  147.3157 C.3     1  UNL111     -0.0380
     16 C         121.7862  150.4951  146.2180 C.3     1  UNL111      0.1110
     17 C         119.9517  150.9307  147.8676 C.2     1  UNL111     -0.0796
     18 C         121.8715  153.6540  145.8135 C.3     1  UNL111      0.1666
     19 C         121.1715  150.4470  147.5864 C.2     1  UNL111     -0.0559
     20 C         120.8459  155.4136  147.7006 C.3     1  UNL111     -0.0545
     21 C         122.6410  154.7332  146.1934 C.3     1  UNL111      0.1618
     22 C         115.8674  153.2806  146.5097 C.2     1  UNL111      0.4029
     23 C         122.1083  155.6408  147.1171 C.3     1  UNL111     -0.0160
     24 C         124.8753  154.3278  146.4726 C.3     1  UNL111      0.0790
     25 C         113.7980  154.0080  145.6879 C.3     1  UNL111      0.0833
     26 H         123.4640  151.4105  145.8905 H       1  UNL111      0.2104
     27 H         118.5127  150.7876  146.3499 H       1  UNL111      0.0371
     28 H         117.4826  152.2008  148.1206 H       1  UNL111      0.0511
     29 H         121.0501  151.0911  144.2786 H       1  UNL111      0.0772
     30 H         118.6485  151.7859  144.0866 H       1  UNL111      0.0290
     31 H         119.5878  153.2405  143.7858 H       1  UNL111      0.0290
     32 H         119.0592  153.6378  149.0345 H       1  UNL111      0.0331
     33 H         118.1129  154.7518  148.0347 H       1  UNL111      0.0331
     34 H         118.1438  154.5910  145.1601 H       1  UNL111      0.0466
     35 H         117.1039  153.5714  144.1844 H       1  UNL111      0.0466
     36 H         121.6082  149.5113  145.7663 H       1  UNL111      0.0675
     37 H         119.5415  150.8070  148.8673 H       1  UNL111      0.0573
     38 H         121.7413  149.9407  148.3622 H       1  UNL111      0.0596
     39 H         120.4819  156.0950  148.4664 H       1  UNL111      0.0622
     40 H         122.6903  156.5091  147.4153 H       1  UNL111      0.0655
     41 H         125.8500  154.5307  146.0190 H       1  UNL111      0.0660
     42 H         124.7391  153.2421  146.5083 H       1  UNL111      0.0660
     43 H         124.8806  154.7440  147.4861 H       1  UNL111      0.0660
     44 H         113.3613  154.4403  144.7833 H       1  UNL111      0.0661
     45 H         113.6488  154.7112  146.5133 H       1  UNL111      0.0661
     46 H         113.2983  153.0559  145.8922 H       1  UNL111      0.0661
@<TRIPOS>BOND
     1     1    10    1
     2     1    18    1
     3     2    16    1
     4     3    21    1
     5     3    24    1
     6     4    22    1
     7     4    25    1
     8     5    22    2
     9     6     9    1
    10     6    14    1
    11     6    22   am
    12     7     8    1
    13     7    10    1
    14     7    11    1
    15     7    12    1
    16     8     9    1
    17     8    17    1
    18     9    13    1
    19    10    16    1
    20    11    14    1
    21    12    15   ar
    22    12    18   ar
    23    13    15    1
    24    15    20   ar
    25    16    19    1
    26    17    19    2
    27    18    21   ar
    28    20    23   ar
    29    21    23   ar
    30     2    26    1
    31     8    27    1
    32     9    28    1
    33    10    29    1
    34    11    30    1
    35    11    31    1
    36    13    32    1
    37    13    33    1
    38    14    34    1
    39    14    35    1
    40    16    36    1
    41    17    37    1
    42    19    38    1
    43    20    39    1
    44    23    40    1
    45    24    41    1
    46    24    42    1
    47    24    43    1
    48    25    44    1
    49    25    45    1
    50    25    46    1
@<TRIPOS>MOLECULE
134823885
 64 68 0 0 0
SMALL
GASTEIGER

@<TRIPOS>ATOM
      1 O         120.2173  152.3287  147.1813 O.2     1  UNL11      -0.4763
      2 O         122.0975  153.4530  145.3673 O.3     1  UNL11      -0.4228
      3 O         119.7370  149.5620  146.8452 O.2     1  UNL11      -0.4914
      4 O         122.9161  155.4075  146.3145 O.2     1  UNL11      -0.2440
      5 N         116.1166  155.5291  147.2171 N.4     1  UNL11       0.2357
      6 N         125.5003  154.6865  145.5846 N.4     1  UNL11       0.2290
      7 C         118.6120  154.1018  146.8489 C.3     1  UNL11       0.0565
      8 C         118.1232  155.1229  145.8162 C.3     1  UNL11       0.0196
      9 C         116.5685  155.0586  145.8169 C.3     1  UNL11      -0.0129
     10 C         120.1136  153.7451  146.8302 C.3     1  UNL11       0.1674
     11 C         118.1306  154.4960  148.2618 C.3     1  UNL11       0.0015
     12 C         118.0774  152.7595  146.4982 C.3     1  UNL11       0.0121
     13 C         115.9922  153.6449  145.4621 C.3     1  UNL11       0.0162
     14 C         118.7288  154.9199  144.4113 C.3     1  UNL11      -0.0223
     15 C         116.6161  154.6692  148.3558 C.3     1  UNL11      -0.0309
     16 C         116.8535  152.4946  145.9153 C.3     1  UNL11      -0.0345
     17 C         119.0218  151.7846  146.7615 C.3     1  UNL11       0.1671
     18 C         120.7891  153.9642  145.4883 C.2     1  UNL11       0.1463
     19 C         120.1647  154.4778  144.4165 C.2     1  UNL11      -0.0415
     20 C         114.6317  155.7866  147.3257 C.3     1  UNL11      -0.0428
     21 C         116.5508  151.1535  145.6872 C.3     1  UNL11      -0.0544
     22 C         118.7451  150.4480  146.5485 C.3     1  UNL11       0.1618
     23 C         117.4822  150.1395  146.0181 C.3     1  UNL11      -0.0160
     24 C         123.0627  154.2689  145.8787 C.2     1  UNL11       0.3612
     25 C         124.4452  153.6101  145.7911 C.3     1  UNL11       0.0773
     26 C         119.4400  148.1809  146.6681 C.3     1  UNL11       0.0790
     27 C         124.8188  152.7969  147.0519 C.3     1  UNL11       0.0094
     28 C         123.9055  151.5780  147.2984 C.3     1  UNL11      -0.0477
     29 C         124.8574  153.6513  148.3294 C.3     1  UNL11      -0.0568
     30 C         123.8966  150.5707  146.1584 C.3     1  UNL11      -0.0648
     31 H         116.5365  156.4590  147.3544 H       1  UNL11       0.2033
     32 H         125.4333  155.1005  144.6450 H       1  UNL11       0.2003
     33 H         126.4594  154.3375  145.7092 H       1  UNL11       0.2003
     34 H         125.3442  155.4635  146.2471 H       1  UNL11       0.2003
     35 H         118.4402  156.1235  146.1463 H       1  UNL11       0.0369
     36 H         116.1632  155.8045  145.1229 H       1  UNL11       0.0857
     37 H         120.6581  154.3162  147.5918 H       1  UNL11       0.0825
     38 H         118.6121  155.4407  148.5478 H       1  UNL11       0.0327
     39 H         118.4426  153.7557  149.0101 H       1  UNL11       0.0327
     40 H         115.9259  153.5835  144.3680 H       1  UNL11       0.0368
     41 H         114.9760  153.5152  145.8447 H       1  UNL11       0.0368
     42 H         118.6550  155.8684  143.8649 H       1  UNL11       0.0313
     43 H         118.1590  154.1896  143.8265 H       1  UNL11       0.0313
     44 H         116.0813  153.7149  148.3209 H       1  UNL11       0.0815
     45 H         116.3508  155.1803  149.2878 H       1  UNL11       0.0815
     46 H         120.6888  154.5306  143.4638 H       1  UNL11       0.0606
     47 H         114.1002  154.8331  147.3366 H       1  UNL11       0.0778
     48 H         114.3301  156.4021  146.4748 H       1  UNL11       0.0778
     49 H         114.4581  156.3305  148.2582 H       1  UNL11       0.0778
     50 H         115.6064  150.8658  145.2263 H       1  UNL11       0.0622
     51 H         117.1951  149.1111  145.8116 H       1  UNL11       0.0655
     52 H         124.5053  153.0026  144.8831 H       1  UNL11       0.0971
     53 H         120.3192  147.6074  146.9765 H       1  UNL11       0.0660
     54 H         119.2457  147.9531  145.6148 H       1  UNL11       0.0660
     55 H         118.6008  147.8727  147.3006 H       1  UNL11       0.0660
     56 H         125.8363  152.4083  146.9023 H       1  UNL11       0.0358
     57 H         122.8807  151.9030  147.5056 H       1  UNL11       0.0267
     58 H         124.2484  151.0572  148.2018 H       1  UNL11       0.0267
     59 H         123.8715  154.0617  148.5701 H       1  UNL11       0.0234
     60 H         125.5631  154.4826  148.2403 H       1  UNL11       0.0234
     61 H         125.1819  153.0482  149.1847 H       1  UNL11       0.0234
     62 H         123.4373  150.9828  145.2560 H       1  UNL11       0.0230
     63 H         123.3189  149.6863  146.4467 H       1  UNL11       0.0230
     64 H         124.9128  150.2458  145.9145 H       1  UNL11       0.0230
@<TRIPOS>UNITY_ATOM_ATTR
5 1
charge 1
6 1
charge 1
@<TRIPOS>BOND
     1     1    10    1
     2     1    17    1
     3     2    18    1
     4     2    24    1
     5     3    22    1
     6     3    26    1
     7     4    24    2
     8     5     9    1
     9     5    15    1
    10     5    20    1
    11     6    25    1
    12     7     8    1
    13     7    10    1
    14     7    11    1
    15     7    12    1
    16     8     9    1
    17     8    14    1
    18     9    13    1
    19    10    18    1
    20    11    15    1
    21    12    16   ar
    22    12    17   ar
    23    13    16    1
    24    14    19    1
    25    16    21   ar
    26    17    22   ar
    27    18    19    2
    28    21    23   ar
    29    22    23   ar
    30    24    25    1
    31    25    27    1
    32    27    28    1
    33    27    29    1
    34    28    30    1
    35     5    31    1
    36     6    32    1
    37     6    33    1
    38     6    34    1
    39     8    35    1
    40     9    36    1
    41    10    37    1
    42    11    38    1
    43    11    39    1
    44    13    40    1
    45    13    41    1
    46    14    42    1
    47    14    43    1
    48    15    44    1
    49    15    45    1
    50    19    46    1
    51    20    47    1
    52    20    48    1
    53    20    49    1
    54    21    50    1
    55    23    51    1
    56    25    52    1
    57    26    53    1
    58    26    54    1
    59    26    55    1
    60    27    56    1
    61    28    57    1
    62    28    58    1
    63    29    59    1
    64    29    60    1
    65    29    61    1
    66    30    62    1
    67    30    63    1
    68    30    64    1
@<TRIPOS>MOLECULE
273031
 60 65 0 0 0
SMALL
GASTEIGER

@<TRIPOS>ATOM
      1 S         122.4893  154.3023  146.2909 S.O2    1  UNL11       0.1126
      2 O         118.8928  154.5523  147.1239 O.2     1  UNL11      -0.4810
      3 O         121.6066  152.9962  145.8708 O.3     1  UNL11      -0.2231
      4 O         117.2150  156.9969  146.2718 O.2     1  UNL11      -0.4914
      5 O         121.9974  154.7501  147.5783 O.2     1  UNL11      -0.1419
      6 O         122.5519  155.1875  145.1480 O.2     1  UNL11      -0.1419
      7 N         116.2026  150.1687  147.2503 N.4     1  UNL11       0.2359
      8 C         118.1405  152.2978  146.8520 C.3     1  UNL11       0.0554
      9 C         118.1898  151.0188  146.0099 C.3     1  UNL11       0.0339
     10 C         116.7138  150.5451  145.8369 C.3     1  UNL11      -0.0097
     11 C         119.3940  153.1896  146.8779 C.3     1  UNL11       0.1427
     12 C         117.6326  151.9508  148.2703 C.3     1  UNL11       0.0015
     13 C         117.2146  153.2977  146.2458 C.3     1  UNL11       0.0120
     14 C         115.7958  151.5892  145.1277 C.3     1  UNL11       0.0165
     15 C         116.2525  151.2945  148.2617 C.3     1  UNL11      -0.0309
     16 C         120.2315  153.2091  145.5626 C.3     1  UNL11       0.1435
     17 C         116.0816  153.0153  145.5064 C.3     1  UNL11      -0.0345
     18 C         118.9582  151.1796  144.7297 C.2     1  UNL11      -0.0760
     19 C         117.6686  154.5829  146.4971 C.3     1  UNL11       0.1666
     20 C         119.8696  152.1474  144.5537 C.2     1  UNL11      -0.0532
     21 C         114.8611  149.4820  147.2508 C.3     1  UNL11      -0.0428
     22 C         115.3301  154.1047  145.0753 C.3     1  UNL11      -0.0544
     23 C         116.9321  155.6770  146.0945 C.3     1  UNL11       0.1618
     24 C         115.7447  155.4175  145.3875 C.3     1  UNL11      -0.0160
     25 C         124.1203  153.6529  146.5427 C.3     1  UNL11       0.1171
     26 C         118.4399  157.3202  146.9206 C.3     1  UNL11       0.0790
     27 C         124.5875  152.6224  145.7236 C.3     1  UNL11      -0.0341
     28 C         124.9031  154.1491  147.5874 C.3     1  UNL11      -0.0341
     29 C         125.8552  152.0858  145.9554 C.3     1  UNL11      -0.0570
     30 C         126.1695  153.6078  147.8115 C.3     1  UNL11      -0.0570
     31 C         126.6483  152.5637  147.0083 C.3     1  UNL11      -0.0503
     32 C         128.0249  152.0070  147.2315 C.3     1  UNL11      -0.0397
     33 H         116.8547  149.4515  147.5971 H       1  UNL11       0.2034
     34 H         118.7319  150.2408  146.5679 H       1  UNL11       0.0408
     35 H         116.6892  149.6042  145.2730 H       1  UNL11       0.0860
     36 H         120.0319  152.9230  147.7293 H       1  UNL11       0.0773
     37 H         117.5882  152.8410  148.9110 H       1  UNL11       0.0327
     38 H         118.3496  151.2696  148.7479 H       1  UNL11       0.0327
     39 H         114.7374  151.3667  145.2908 H       1  UNL11       0.0368
     40 H         115.9733  151.5045  144.0474 H       1  UNL11       0.0368
     41 H         116.0376  150.8545  149.2418 H       1  UNL11       0.0815
     42 H         115.4530  152.0017  148.0198 H       1  UNL11       0.0815
     43 H         120.1209  154.1767  145.0559 H       1  UNL11       0.0702
     44 H         118.8125  150.4506  143.9335 H       1  UNL11       0.0575
     45 H         120.4126  152.1954  143.6095 H       1  UNL11       0.0596
     46 H         114.0810  150.2157  147.0379 H       1  UNL11       0.0778
     47 H         114.7126  149.0455  148.2423 H       1  UNL11       0.0778
     48 H         114.8816  148.6917  146.4965 H       1  UNL11       0.0778
     49 H         114.4306  153.9670  144.4783 H       1  UNL11       0.0622
     50 H         115.1453  156.2592  145.0407 H       1  UNL11       0.0655
     51 H         118.5100  158.4113  146.9705 H       1  UNL11       0.0660
     52 H         119.2995  156.9618  146.3448 H       1  UNL11       0.0660
     53 H         118.4548  156.9430  147.9481 H       1  UNL11       0.0660
     54 H         123.9859  152.2413  144.9026 H       1  UNL11       0.0637
     55 H         124.5418  154.9536  148.2246 H       1  UNL11       0.0637
     56 H         126.2273  151.2928  145.3090 H       1  UNL11       0.0621
     57 H         126.7835  154.0051  148.6181 H       1  UNL11       0.0621
     58 H         128.0572  150.9405  146.9849 H       1  UNL11       0.0278
     59 H         128.3219  152.1061  148.2809 H       1  UNL11       0.0278
     60 H         128.7495  152.5388  146.6074 H       1  UNL11       0.0278
@<TRIPOS>UNITY_ATOM_ATTR
7 1
charge 1
@<TRIPOS>BOND
     1     1     3    1
     2     1     5    2
     3     1     6    2
     4     1    25    1
     5     2    11    1
     6     2    19    1
     7     3    16    1
     8     4    23    1
     9     4    26    1
    10     7    10    1
    11     7    15    1
    12     7    21    1
    13     8     9    1
    14     8    11    1
    15     8    12    1
    16     8    13    1
    17     9    10    1
    18     9    18    1
    19    10    14    1
    20    11    16    1
    21    12    15    1
    22    13    17   ar
    23    13    19   ar
    24    14    17    1
    25    16    20    1
    26    17    22   ar
    27    18    20    2
    28    19    23   ar
    29    22    24   ar
    30    23    24   ar
    31    25    27   ar
    32    25    28   ar
    33    27    29   ar
    34    28    30   ar
    35    29    31   ar
    36    30    31   ar
    37    31    32    1
    38     7    33    1
    39     9    34    1
    40    10    35    1
    41    11    36    1
    42    12    37    1
    43    12    38    1
    44    14    39    1
    45    14    40    1
    46    15    41    1
    47    15    42    1
    48    16    43    1
    49    18    44    1
    50    20    45    1
    51    21    46    1
    52    21    47    1
    53    21    48    1
    54    22    49    1
    55    24    50    1
    56    26    51    1
    57    26    52    1
    58    26    53    1
    59    27    54    1
    60    28    55    1
    61    29    56    1
    62    30    57    1
    63    32    58    1
    64    32    59    1
    65    32    60    1
@<TRIPOS>MOLECULE
520825
 55 60 0 0 0
SMALL
GASTEIGER

@<TRIPOS>ATOM
      1 O         120.8946  151.2893  147.3055 O.2     1  UNL11      -0.4799
      2 O         117.7793  152.0658  145.9840 O.3     1  UNL11      -0.4499
      3 O         123.2544  149.4118  146.7012 O.2     1  UNL11      -0.4914
      4 O         117.7031  154.1369  146.9719 O.2     1  UNL11      -0.2449
      5 N         122.1441  156.3145  147.1517 N.4     1  UNL11       0.2359
      6 N         113.5425  153.8424  147.1932 N.pl3   1  UNL11      -0.2624
      7 C         120.9747  153.6660  146.9085 C.3     1  UNL11       0.0564
      8 C         120.6065  154.7879  145.9245 C.3     1  UNL11       0.0340
      9 C         121.8737  155.6794  145.7667 C.3     1  UNL11      -0.0097
     10 C         120.0318  152.4505  147.0106 C.3     1  UNL11       0.1512
     11 C         121.2819  154.2705  148.2959 C.3     1  UNL11       0.0015
     12 C         122.1823  152.9397  146.4136 C.3     1  UNL11       0.0121
     13 C         123.1116  154.9141  145.2082 C.3     1  UNL11       0.0165
     14 C         122.3917  155.3177  148.2601 C.3     1  UNL11      -0.0309
     15 C         123.2215  153.4918  145.6842 C.3     1  UNL11      -0.0345
     16 C         119.2035  152.1579  145.7213 C.3     1  UNL11       0.1590
     17 C         120.0412  154.2729  144.6271 C.2     1  UNL11      -0.0751
     18 C         122.1059  151.5950  146.7343 C.3     1  UNL11       0.1666
     19 C         119.4084  153.0924  144.5520 C.2     1  UNL11      -0.0438
     20 C         123.1847  157.4019  147.1337 C.3     1  UNL11      -0.0428
     21 C         124.2703  152.6427  145.3405 C.3     1  UNL11      -0.0544
     22 C         123.1495  150.7429  146.4323 C.3     1  UNL11       0.1618
     23 C         124.2368  151.2878  145.7280 C.3     1  UNL11      -0.0160
     24 C         117.1578  153.1218  146.5643 C.2     1  UNL11       0.3413
     25 C         122.3107  148.8600  147.6109 C.3     1  UNL11       0.0790
     26 C         115.6999  152.8909  146.6388 C.3     1  UNL11       0.0770
     27 C         115.0833  151.6881  146.2845 C.3     1  UNL11      -0.0449
     28 C         114.8903  153.9278  147.0849 C.3     1  UNL11       0.0415
     29 C         113.6973  151.5739  146.3883 C.3     1  UNL11      -0.0428
     30 C         112.9760  152.6672  146.8422 C.3     1  UNL11       0.0276
     31 H         121.2700  156.7989  147.4031 H       1  UNL11       0.2034
     32 H         119.8171  155.4157  146.3607 H       1  UNL11       0.0408
     33 H         121.6508  156.5296  145.1100 H       1  UNL11       0.0860
     34 H         119.3716  152.5351  147.8807 H       1  UNL11       0.0783
     35 H         121.5637  153.4924  149.0174 H       1  UNL11       0.0327
     36 H         120.3677  154.7342  148.6901 H       1  UNL11       0.0327
     37 H         124.0424  155.4481  145.4196 H       1  UNL11       0.0368
     38 H         123.0094  154.8772  144.1155 H       1  UNL11       0.0368
     39 H         122.4108  155.8794  149.2005 H       1  UNL11       0.0815
     40 H         123.3810  154.8763  148.1037 H       1  UNL11       0.0815
     41 H         119.4771  151.1565  145.3654 H       1  UNL11       0.0817
     42 H         120.0882  154.9013  143.7396 H       1  UNL11       0.0575
     43 H         118.9798  152.7735  143.6031 H       1  UNL11       0.0607
     44 H         124.1724  156.9531  147.0099 H       1  UNL11       0.0778
     45 H         123.1257  157.9340  148.0871 H       1  UNL11       0.0778
     46 H         122.9521  158.0846  146.3128 H       1  UNL11       0.0778
     47 H         125.1140  153.0006  144.7534 H       1  UNL11       0.0622
     48 H         125.0649  150.6361  145.4508 H       1  UNL11       0.0655
     49 H         122.6316  147.8396  147.8426 H       1  UNL11       0.0660
     50 H         121.3183  148.7973  147.1542 H       1  UNL11       0.0660
     51 H         122.2866  149.4181  148.5530 H       1  UNL11       0.0660
     52 H         115.6603  150.8381  145.9308 H       1  UNL11       0.0627
     53 H         115.3042  154.8900  147.3756 H       1  UNL11       0.0838
     54 H         113.1895  150.6527  146.1211 H       1  UNL11       0.0633
     55 H         111.8939  152.6256  146.9382 H       1  UNL11       0.0829
@<TRIPOS>UNITY_ATOM_ATTR
5 1
charge 1
@<TRIPOS>BOND
     1     1    10    1
     2     1    18    1
     3     2    16    1
     4     2    24    1
     5     3    22    1
     6     3    25    1
     7     4    24    2
     8     5     9    1
     9     5    14    1
    10     5    20    1
    11     6    28   ar
    12     6    30   ar
    13     7     8    1
    14     7    10    1
    15     7    11    1
    16     7    12    1
    17     8     9    1
    18     8    17    1
    19     9    13    1
    20    10    16    1
    21    11    14    1
    22    12    15   ar
    23    12    18   ar
    24    13    15    1
    25    15    21   ar
    26    16    19    1
    27    17    19    2
    28    18    22   ar
    29    21    23   ar
    30    22    23   ar
    31    24    26    1
    32    26    27   ar
    33    26    28   ar
    34    27    29   ar
    35    29    30   ar
    36     5    31    1
    37     8    32    1
    38     9    33    1
    39    10    34    1
    40    11    35    1
    41    11    36    1
    42    13    37    1
    43    13    38    1
    44    14    39    1
    45    14    40    1
    46    16    41    1
    47    17    42    1
    48    19    43    1
    49    20    44    1
    50    20    45    1
    51    20    46    1
    52    21    47    1
    53    23    48    1
    54    25    49    1
    55    25    50    1
    56    25    51    1
    57    27    52    1
    58    28    53    1
    59    29    54    1
    60    30    55    1
@<TRIPOS>MOLECULE
5359929
 44 48 0 0 0
SMALL
GASTEIGER

@<TRIPOS>ATOM
      1 O         121.6430  153.9441  147.7413 O.2     1  UNL111     -0.4811
      2 O         115.9136  151.4710  146.3528 O.co2   1  UNL111     -0.7753
      3 O         122.2759  155.9222  146.1522 O.3     1  UNL111     -0.3841
      4 O         123.6242  151.8668  147.2638 O.2     1  UNL111     -0.4914
      5 N         116.6207  152.6062  146.6929 N.3     1  UNL111      0.2178
      6 C         119.3153  153.8314  147.0303 C.3     1  UNL111      0.0553
      7 C         118.3815  154.2677  145.8929 C.3     1  UNL111      0.0338
      8 C         117.5331  153.0178  145.5127 C.3     1  UNL111     -0.0105
      9 C         120.4750  154.7799  147.4079 C.3     1  UNL111      0.1402
     10 C         118.4857  153.3982  148.2583 C.3     1  UNL111      0.0014
     11 C         120.1478  152.6879  146.5566 C.3     1  UNL111      0.0120
     12 C         117.4506  152.3181  147.9324 C.3     1  UNL111     -0.0317
     13 C         118.4052  151.8201  145.0023 C.3     1  UNL111      0.0164
     14 C         119.7518  151.7017  145.6706 C.3     1  UNL111     -0.0345
     15 C         120.8624  155.8153  146.3097 C.3     1  UNL111      0.1110
     16 C         119.1335  154.8981  144.7457 C.2     1  UNL111     -0.0761
     17 C         121.4323  152.7804  147.0457 C.3     1  UNL111      0.1666
     18 C         120.2643  155.5917  144.9506 C.2     1  UNL111     -0.0558
     19 C         115.5884  153.6628  146.9924 C.3     1  UNL111     -0.0436
     20 C         120.6778  150.6984  145.3756 C.3     1  UNL111     -0.0544
     21 C         122.3624  151.8074  146.7495 C.3     1  UNL111      0.1618
     22 C         121.9705  150.7373  145.9362 C.3     1  UNL111     -0.0160
     23 C         124.5258  152.3998  146.2943 C.3     1  UNL111      0.0790
     24 H         122.6649  155.1887  146.6673 H       1  UNL111      0.2104
     25 H         117.7173  155.0603  146.2559 H       1  UNL111      0.0408
     26 H         116.8192  153.2704  144.7170 H       1  UNL111      0.0859
     27 H         120.2356  155.3386  148.3217 H       1  UNL111      0.0772
     28 H         117.9732  154.2781  148.6668 H       1  UNL111      0.0327
     29 H         119.1339  153.0247  149.0617 H       1  UNL111      0.0327
     30 H         117.9271  151.3465  147.7606 H       1  UNL111      0.0814
     31 H         116.7420  152.1886  148.7588 H       1  UNL111      0.0814
     32 H         118.5936  151.9816  143.9327 H       1  UNL111      0.0368
     33 H         117.8758  150.8665  145.0937 H       1  UNL111      0.0368
     34 H         120.5154  156.8027  146.6387 H       1  UNL111      0.0675
     35 H         118.7251  154.8210  143.7404 H       1  UNL111      0.0575
     36 H         120.7646  156.0673  144.1099 H       1  UNL111      0.0596
     37 H         115.0686  153.8931  146.0587 H       1  UNL111      0.0777
     38 H         116.0672  154.5470  147.4112 H       1  UNL111      0.0777
     39 H         114.8881  153.2377  147.7182 H       1  UNL111      0.0777
     40 H         120.4125  149.8880  144.6999 H       1  UNL111      0.0622
     41 H         122.6775  149.9437  145.7091 H       1  UNL111      0.0655
     42 H         125.5071  152.4984  146.7681 H       1  UNL111      0.0660
     43 H         124.2099  153.3943  145.9599 H       1  UNL111      0.0660
     44 H         124.6302  151.7251  145.4376 H       1  UNL111      0.0660
@<TRIPOS>UNITY_ATOM_ATTR
2 1
charge -1
5 1
charge 1
@<TRIPOS>BOND
     1     1     9    1
     2     1    17    1
     3     2     5    1
     4     3    15    1
     5     4    21    1
     6     4    23    1
     7     5     8    1
     8     5    12    1
     9     5    19    1
    10     6     7    1
    11     6     9    1
    12     6    10    1
    13     6    11    1
    14     7     8    1
    15     7    16    1
    16     8    13    1
    17     9    15    1
    18    10    12    1
    19    11    14   ar
    20    11    17   ar
    21    13    14    1
    22    14    20   ar
    23    15    18    1
    24    16    18    2
    25    17    21   ar
    26    20    22   ar
    27    21    22   ar
    28     3    24    1
    29     7    25    1
    30     8    26    1
    31     9    27    1
    32    10    28    1
    33    10    29    1
    34    12    30    1
    35    12    31    1
    36    13    32    1
    37    13    33    1
    38    15    34    1
    39    16    35    1
    40    18    36    1
    41    19    37    1
    42    19    38    1
    43    19    39    1
    44    20    40    1
    45    22    41    1
    46    23    42    1
    47    23    43    1
    48    23    44    1
@<TRIPOS>MOLECULE
5702288
 44 48 0 0 0
SMALL
GASTEIGER

@<TRIPOS>ATOM
      1 O         118.3579  152.0925  147.7237 O.3     1  UNL11      -0.4811
      2 O         117.9243  150.5742  145.6280 O.3     1  UNL11      -0.3841
      3 O         116.2363  153.8796  147.1830 O.3     1  UNL11      -0.4914
      4 N         123.1232  153.8940  146.8933 N.4     1  UNL11       0.2359
      5 C         120.6551  152.3642  147.0529 C.3     1  UNL11       0.0553
      6 C         121.7562  151.9882  146.0559 C.3     1  UNL11       0.0339
      7 C         122.4384  153.3224  145.6241 C.3     1  UNL11      -0.0097
      8 C         119.5563  151.3246  147.3512 C.3     1  UNL11       0.1402
      9 C         121.3123  152.9293  148.3331 C.3     1  UNL11       0.0015
     10 C         119.7567  153.4111  146.4896 C.ar    1  UNL11       0.0120
     11 C         121.4667  154.3460  144.9563 C.3     1  UNL11       0.0165
     12 C         122.1888  154.1522  148.0569 C.3     1  UNL11      -0.0309
     13 C         120.0994  154.3877  145.5779 C.ar    1  UNL11      -0.0345
     14 C         119.2200  150.3483  146.1773 C.3     1  UNL11       0.1110
     15 C         121.2795  151.1226  144.9277 C.2     1  UNL11      -0.0761
     16 C         118.4734  153.2482  146.9760 C.ar    1  UNL11       0.1666
     17 C         120.1609  150.3879  145.0076 C.2     1  UNL11      -0.0558
     18 C         124.0146  155.0781  146.6227 C.3     1  UNL11      -0.0428
     19 C         119.0957  155.2858  145.2175 C.ar    1  UNL11      -0.0544
     20 C         117.4616  154.1269  146.6427 C.ar    1  UNL11       0.1618
     21 C         117.7937  155.1672  145.7621 C.ar    1  UNL11      -0.0160
     22 C         115.1625  154.7082  146.7552 C.3     1  UNL11       0.0790
     23 H         117.3733  150.9620  146.3356 H       1  UNL11       0.2104
     24 H         123.7689  153.1574  147.2101 H       1  UNL11       0.2034
     25 H         122.5114  151.3763  146.5719 H       1  UNL11       0.0408
     26 H         123.2652  153.1111  144.9346 H       1  UNL11       0.0860
     27 H         119.8438  150.7223  148.2225 H       1  UNL11       0.0772
     28 H         121.9268  152.1448  148.7945 H       1  UNL11       0.0327
     29 H         120.5606  153.2052  149.0841 H       1  UNL11       0.0327
     30 H         121.3328  154.0395  143.9104 H       1  UNL11       0.0368
     31 H         121.8971  155.3513  144.9372 H       1  UNL11       0.0368
     32 H         121.6005  155.0455  147.8250 H       1  UNL11       0.0815
     33 H         122.8160  154.3712  148.9281 H       1  UNL11       0.0815
     34 H         119.2145  149.3270  146.5756 H       1  UNL11       0.0675
     35 H         121.8898  151.0408  144.0295 H       1  UNL11       0.0575
     36 H         119.8802  149.7568  144.1643 H       1  UNL11       0.0596
     37 H         123.3964  155.9554  146.4211 H       1  UNL11       0.0778
     38 H         124.6543  154.8369  145.7703 H       1  UNL11       0.0778
     39 H         124.6280  155.2416  147.5131 H       1  UNL11       0.0778
     40 H         119.2887  156.0740  144.4914 H       1  UNL11       0.0622
     41 H         117.0480  155.8911  145.4434 H       1  UNL11       0.0655
     42 H         114.2512  154.3560  147.2478 H       1  UNL11       0.0660
     43 H         115.0092  154.6299  145.6737 H       1  UNL11       0.0660
     44 H         115.3246  155.7482  147.0569 H       1  UNL11       0.0660
@<TRIPOS>UNITY_ATOM_ATTR
4 1
charge 1
@<TRIPOS>BOND
     1     1     8    1
     2     1    16    1
     3     2    14    1
     4     3    20    1
     5     3    22    1
     6     4     7    1
     7     4    12    1
     8     4    18    1
     9     5     6    1
    10     5     8    1
    11     5     9    1
    12     5    10    1
    13     6     7    1
    14     6    15    1
    15     7    11    1
    16     8    14    1
    17     9    12    1
    18    10    13   ar
    19    10    16   ar
    20    11    13    1
    21    13    19   ar
    22    14    17    1
    23    15    17    2
    24    16    20   ar
    25    19    21   ar
    26    20    21   ar
    27     2    23    1
    28     4    24    1
    29     6    25    1
    30     7    26    1
    31     8    27    1
    32     9    28    1
    33     9    29    1
    34    11    30    1
    35    11    31    1
    36    12    32    1
    37    12    33    1
    38    14    34    1
    39    15    35    1
    40    17    36    1
    41    18    37    1
    42    18    38    1
    43    18    39    1
    44    19    40    1
    45    21    41    1
    46    22    42    1
    47    22    43    1
    48    22    44    1
@<TRIPOS>MOLECULE
6560399
 44 48 0 0 0
SMALL
GASTEIGER

@<TRIPOS>ATOM
      1 O         121.4202  152.2279  147.8103 O.3     1  UNL11      -0.4811
      2 O         122.0948  150.7585  145.7575 O.3     1  UNL11      -0.3841
      3 O         123.3576  154.3011  147.3108 O.3     1  UNL11      -0.4914
      4 N         116.5134  153.5089  146.8277 N.4     1  UNL11       0.2359
      5 C         119.1273  152.2581  147.0651 C.3     1  UNL11       0.0553
      6 C         118.1121  151.7762  146.0234 C.3     1  UNL11       0.0339
      7 C         117.3008  153.0323  145.5795 C.3     1  UNL11      -0.0097
      8 C         120.3206  151.3393  147.3993 C.3     1  UNL11       0.1402
      9 C         118.3685  152.7367  148.3238 C.3     1  UNL11       0.0015
     10 C         119.9268  153.3999  146.5380 C.ar    1  UNL11       0.0120
     11 C         118.1751  154.1656  144.9556 C.3     1  UNL11       0.0165
     12 C         117.3736  153.8590  148.0239 C.3     1  UNL11      -0.0309
     13 C         119.5113  154.3450  145.6198 C.ar    1  UNL11      -0.0345
     14 C         120.7976  150.4096  146.2366 C.3     1  UNL11       0.1110
     15 C         118.7272  150.9892  144.9038 C.2     1  UNL11      -0.0761
     16 C         121.2028  153.3665  147.0643 C.ar    1  UNL11       0.1666
     17 C         119.9143  150.3763  145.0231 C.2     1  UNL11      -0.0558
     18 C         115.5032  154.5879  146.5350 C.3     1  UNL11      -0.0428
     19 C         120.4212  155.3533  145.2973 C.ar    1  UNL11      -0.0544
     20 C         122.1179  154.3453  146.7483 C.ar    1  UNL11       0.1618
     21 C         121.7088  155.3661  145.8793 C.ar    1  UNL11      -0.0160
     22 C         124.3881  154.2173  146.3266 C.3     1  UNL11       0.0790
     23 H         122.5720  151.1696  146.5040 H       1  UNL11       0.2104
     24 H         115.9448  152.7012  147.1174 H       1  UNL11       0.2034
     25 H         117.4121  151.0756  146.5031 H       1  UNL11       0.0408
     26 H         116.5270  152.7393  144.8590 H       1  UNL11       0.0860
     27 H         120.0723  150.7066  148.2610 H       1  UNL11       0.0772
     28 H         119.0594  153.0860  149.1021 H       1  UNL11       0.0327
     29 H         117.8278  151.8856  148.7588 H       1  UNL11       0.0327
     30 H         117.6391  155.1187  144.9357 H       1  UNL11       0.0368
     31 H         118.3726  153.8921  143.9106 H       1  UNL11       0.0368
     32 H         116.6972  154.0006  148.8741 H       1  UNL11       0.0815
     33 H         117.8679  154.8132  147.8163 H       1  UNL11       0.0815
     34 H         120.8754  149.3883  146.6274 H       1  UNL11       0.0675
     35 H         118.1694  150.8623  143.9773 H       1  UNL11       0.0575
     36 H         120.2973  149.7958  144.1839 H       1  UNL11       0.0596
     37 H         116.0244  155.5315  146.3610 H       1  UNL11       0.0778
     38 H         114.8458  154.6712  147.4048 H       1  UNL11       0.0778
     39 H         114.9238  154.2852  145.6594 H       1  UNL11       0.0778
     40 H         120.1622  156.1303  144.5802 H       1  UNL11       0.0622
     41 H         122.3940  156.1723  145.6269 H       1  UNL11       0.0655
     42 H         125.3212  153.9686  146.8411 H       1  UNL11       0.0660
     43 H         124.5290  155.1771  145.8200 H       1  UNL11       0.0660
     44 H         124.1819  153.4236  145.5992 H       1  UNL11       0.0660
@<TRIPOS>UNITY_ATOM_ATTR
4 1
charge 1
@<TRIPOS>BOND
     1     1     8    1
     2     1    16    1
     3     2    14    1
     4     3    20    1
     5     3    22    1
     6     4     7    1
     7     4    12    1
     8     4    18    1
     9     5     6    1
    10     5     8    1
    11     5     9    1
    12     5    10    1
    13     6     7    1
    14     6    15    1
    15     7    11    1
    16     8    14    1
    17     9    12    1
    18    10    13   ar
    19    10    16   ar
    20    11    13    1
    21    13    19   ar
    22    14    17    1
    23    15    17    2
    24    16    20   ar
    25    19    21   ar
    26    20    21   ar
    27     2    23    1
    28     4    24    1
    29     6    25    1
    30     7    26    1
    31     8    27    1
    32     9    28    1
    33     9    29    1
    34    11    30    1
    35    11    31    1
    36    12    32    1
    37    12    33    1
    38    14    34    1
    39    15    35    1
    40    17    36    1
    41    18    37    1
    42    18    38    1
    43    18    39    1
    44    19    40    1
    45    21    41    1
    46    22    42    1
    47    22    43    1
    48    22    44    1
@<TRIPOS>MOLECULE
24740239
 26 30 0 0 0
SMALL
GASTEIGER

@<TRIPOS>ATOM
      1 O         117.9981  152.0219  147.0729 O.2     1  UNL11      -0.4731
      2 O         119.7473  149.2295  147.3023 O.3     1  UNL11      -0.2144
      3 O         115.8907  153.9635  146.6039 O.2     1  UNL11      -0.4908
      4 N         123.3221  153.4784  146.5678 N.4     1  UNL11       0.2767
      5 C         120.3464  152.5125  146.9959 C.3     1  UNL11       0.0759
      6 C         121.2863  152.3909  145.7215 C.3     1  UNL11       0.0790
      7 C         122.1973  153.5573  145.6059 C.3     1  UNL11       0.0643
      8 C         119.2933  151.4432  147.1572 C.3     1  UNL11       0.2046
      9 C         121.2816  152.6749  148.1222 C.3     1  UNL11       0.0692
     10 C         119.4949  153.7182  146.7498 C.2     1  UNL11       0.0146
     11 C         121.3119  154.7213  145.6900 C.3     1  UNL11       0.0814
     12 C         122.7010  153.1467  147.8675 C.3     1  UNL11       0.1058
     13 C         119.9608  154.8943  146.1558 C.2     1  UNL11      -0.0172
     14 C         119.5515  150.1572  146.4866 C.3     1  UNL11       0.2136
     15 C         121.2722  151.1432  145.0733 C.2     1  UNL11      -0.0223
     16 C         118.1567  153.3801  146.8355 C.2     1  UNL11       0.1679
     17 C         120.5171  150.2849  145.4318 C.2     1  UNL11       0.0054
     18 C         124.1906  154.6507  146.6251 C.3     1  UNL11       0.1669
     19 C         119.0279  155.8359  145.7712 C.2     1  UNL11      -0.0011
     20 C         117.2028  154.3139  146.4892 C.2     1  UNL11       0.1702
     21 C         117.6603  155.5567  145.9971 C.2     1  UNL11       0.0397
     22 C         114.9512  154.9627  146.2236 C.3     1  UNL11       0.0790
     23 H         123.9007  152.6632  146.3126 H       1  UNL11       0.2067
     24 H         113.9480  154.5618  146.3971 H       1  UNL11       0.0660
     25 H         115.0388  155.1991  145.1579 H       1  UNL11       0.0660
     26 H         115.0608  155.8644  146.8358 H       1  UNL11       0.0660
@<TRIPOS>UNITY_ATOM_ATTR
4 1
charge 1
@<TRIPOS>BOND
     1     1     8    1
     2     1    16    1
     3     2    14    1
     4     3    20    1
     5     3    22    1
     6     4     7    1
     7     4    12    1
     8     4    18    1
     9     5     6    1
    10     5     8    1
    11     5     9    1
    12     5    10    1
    13     6     7    1
    14     6    15    1
    15     7    11    1
    16     8    14    1
    17     9    12    1
    18    10    13    2
    19    10    16    1
    20    11    13    1
    21    13    19    1
    22    14    17    1
    23    15    17    2
    24    16    20    2
    25    19    21    2
    26    20    21    1
    27     4    23    1
    28    22    24    1
    29    22    25    1
    30    22    26    1
@<TRIPOS>MOLECULE
124037298
 61 65 0 0 0
SMALL
GASTEIGER

@<TRIPOS>ATOM
      1 O         119.6423  152.7494  147.6084 O.3     1  UNL11      -0.4811
      2 O         118.7200  150.8625  145.8556 O.3     1  UNL11      -0.3666
      3 O         118.1434  155.1104  147.1765 O.3     1  UNL11      -0.4914
      4 O         116.0246  151.7838  146.6728 O.3     1  UNL11      -0.3752
      5 O         112.9932  153.7452  146.1341 O.3     1  UNL11      -0.3807
      6 N         124.7786  153.0700  146.9111 N.4     1  UNL11       0.2359
      7 C         121.9539  152.3906  147.0085 C.3     1  UNL11       0.0553
      8 C         122.8730  151.7936  145.9331 C.3     1  UNL11       0.0339
      9 C         123.9533  152.8739  145.6156 C.3     1  UNL11      -0.0097
     10 C         120.6038  151.6901  147.2899 C.3     1  UNL11       0.1404
     11 C         122.7532  152.6416  148.3054 C.3     1  UNL11       0.0015
     12 C         121.4053  153.6884  146.5128 C.ar    1  UNL11       0.0120
     13 C         123.3670  154.2155  145.0772 C.3     1  UNL11       0.0165
     14 C         123.9688  153.5414  148.0983 C.3     1  UNL11      -0.0309
     15 C         120.1074  150.7364  146.1556 C.3     1  UNL11       0.1145
     16 C         122.0454  154.5925  145.6856 C.ar    1  UNL11      -0.0345
     17 C         122.1066  151.3096  144.7326 C.2     1  UNL11      -0.0761
     18 C         120.1044  153.8562  146.9412 C.ar    1  UNL11       0.1666
     19 C         120.8511  150.8509  144.8478 C.2     1  UNL11      -0.0555
     20 C         126.0243  153.8957  146.7219 C.3     1  UNL11      -0.0428
     21 C         121.3544  155.7633  145.3762 C.ar    1  UNL11      -0.0544
     22 C         119.4018  155.0143  146.6629 C.ar    1  UNL11       0.1618
     23 C         120.0519  155.9806  145.8803 C.ar    1  UNL11      -0.0160
     24 C         117.8710  150.2372  146.8265 C.3     1  UNL11       0.0719
     25 C         116.4080  150.4292  146.4290 C.3     1  UNL11       0.0711
     26 C         117.3506  156.2075  146.7449 C.3     1  UNL11       0.0790
     27 C         114.6694  152.0242  146.3016 C.3     1  UNL11       0.0711
     28 C         114.3522  153.5020  146.4947 C.3     1  UNL11       0.0706
     29 C         112.6513  155.1165  146.2829 C.3     1  UNL11       0.0365
     30 H         125.1292  152.1348  147.1598 H       1  UNL11       0.2034
     31 H         123.3844  150.9082  146.3381 H       1  UNL11       0.0408
     32 H         124.6706  152.4771  144.8864 H       1  UNL11       0.0860
     33 H         120.6821  151.0822  148.2009 H       1  UNL11       0.0772
     34 H         123.0901  151.6756  148.7048 H       1  UNL11       0.0327
     35 H         122.1205  153.0890  149.0831 H       1  UNL11       0.0327
     36 H         123.1978  154.0911  143.9993 H       1  UNL11       0.0368
     37 H         124.0762  155.0402  145.1914 H       1  UNL11       0.0368
     38 H         123.6952  154.5874  147.9290 H       1  UNL11       0.0815
     39 H         124.6256  153.4950  148.9740 H       1  UNL11       0.0815
     40 H         120.2956  149.7036  146.4833 H       1  UNL11       0.0678
     41 H         122.5826  151.2976  143.7540 H       1  UNL11       0.0575
     42 H         120.3295  150.4844  143.9646 H       1  UNL11       0.0596
     43 H         125.7470  154.9443  146.5976 H       1  UNL11       0.0778
     44 H         126.5554  153.5172  145.8451 H       1  UNL11       0.0778
     45 H         126.6440  153.7693  147.6139 H       1  UNL11       0.0778
     46 H         121.7950  156.5147  144.7231 H       1  UNL11       0.0622
     47 H         119.5583  156.9116  145.6153 H       1  UNL11       0.0655
     48 H         118.0529  150.6704  147.8151 H       1  UNL11       0.0583
     49 H         118.0984  149.1658  146.8503 H       1  UNL11       0.0583
     50 H         116.2727  150.2003  145.3660 H       1  UNL11       0.0583
     51 H         115.7755  149.7691  147.0325 H       1  UNL11       0.0583
     52 H         116.3558  156.0972  147.1870 H       1  UNL11       0.0660
     53 H         117.2333  156.2089  145.6559 H       1  UNL11       0.0660
     54 H         117.7676  157.1562  147.0982 H       1  UNL11       0.0660
     55 H         113.9995  151.4133  146.9184 H       1  UNL11       0.0583
     56 H         114.5063  151.7454  145.2536 H       1  UNL11       0.0583
     57 H         114.5214  153.7868  147.5401 H       1  UNL11       0.0582
     58 H         115.0203  154.1075  145.8706 H       1  UNL11       0.0582
     59 H         111.6016  155.2420  146.0047 H       1  UNL11       0.0524
     60 H         113.2647  155.7367  145.6221 H       1  UNL11       0.0524
     61 H         112.7784  155.4333  147.3225 H       1  UNL11       0.0524
@<TRIPOS>UNITY_ATOM_ATTR
6 1
charge 1
@<TRIPOS>BOND
     1     1    10    1
     2     1    18    1
     3     2    15    1
     4     2    24    1
     5     3    22    1
     6     3    26    1
     7     4    25    1
     8     4    27    1
     9     5    28    1
    10     5    29    1
    11     6     9    1
    12     6    14    1
    13     6    20    1
    14     7     8    1
    15     7    10    1
    16     7    11    1
    17     7    12    1
    18     8     9    1
    19     8    17    1
    20     9    13    1
    21    10    15    1
    22    11    14    1
    23    12    16   ar
    24    12    18   ar
    25    13    16    1
    26    15    19    1
    27    16    21   ar
    28    17    19    2
    29    18    22   ar
    30    21    23   ar
    31    22    23   ar
    32    24    25    1
    33    27    28    1
    34     6    30    1
    35     8    31    1
    36     9    32    1
    37    10    33    1
    38    11    34    1
    39    11    35    1
    40    13    36    1
    41    13    37    1
    42    14    38    1
    43    14    39    1
    44    15    40    1
    45    17    41    1
    46    19    42    1
    47    20    43    1
    48    20    44    1
    49    20    45    1
    50    21    46    1
    51    23    47    1
    52    24    48    1
    53    24    49    1
    54    25    50    1
    55    25    51    1
    56    26    52    1
    57    26    53    1
    58    26    54    1
    59    27    55    1
    60    27    56    1
    61    28    57    1
    62    28    58    1
    63    29    59    1
    64    29    60    1
    65    29    61    1
@<TRIPOS>MOLECULE
129827288
 47 50 0 0 0
SMALL
GASTEIGER

@<TRIPOS>ATOM
      1 O         121.2138  151.9998  145.9584 O.3     1  UNL11      -0.4819
      2 O         123.4546  153.5323  145.7036 O.3     1  UNL11      -0.2659
      3 O         120.1170  149.8469  147.2871 O.3     1  UNL11      -0.4915
      4 N         117.3125  154.6449  147.3785 N.4     1  UNL11       0.2359
      5 N         124.9105  153.0828  147.6697 N.1     1  UNL11      -0.1635
      6 C         119.9077  153.9224  147.1218 C.3     1  UNL11       0.0151
      7 C         119.4653  155.0379  146.1276 C.3     1  UNL11       0.0270
      8 C         117.9116  154.9436  145.9484 C.3     1  UNL11      -0.0103
      9 C         121.2681  153.2132  146.8192 C.3     1  UNL11       0.1350
     10 C         119.6204  154.4707  148.5185 C.3     1  UNL11      -0.0055
     11 C         118.2019  155.1051  148.5580 C.3     1  UNL11      -0.0315
     12 C         122.2753  154.1965  146.1570 C.3     1  UNL11       0.1324
     13 C         117.3599  153.9169  144.8741 C.3     1  UNL11       0.0162
     14 C         120.3498  155.2400  144.9320 C.2     1  UNL11      -0.0766
     15 C         121.6455  154.8835  144.9634 C.2     1  UNL11      -0.0541
     16 C         115.9132  155.1804  147.5308 C.3     1  UNL11      -0.0428
     17 C         117.8849  152.5036  145.0406 C.ar    1  UNL11      -0.0384
     18 C         119.9536  151.5391  145.6541 C.ar    1  UNL11       0.1627
     19 C         119.2289  152.2969  144.7462 C.ar    1  UNL11      -0.0129
     20 C         117.2030  151.5380  145.7903 C.ar    1  UNL11      -0.0547
     21 C         119.3244  150.5718  146.4433 C.ar    1  UNL11       0.1615
     22 C         117.9262  150.5222  146.4336 C.ar    1  UNL11      -0.0160
     23 C         124.2551  153.2738  146.7336 C.1     1  UNL11       0.2283
     24 C         119.6204  148.5635  147.6535 C.3     1  UNL11       0.0790
     25 H         117.2383  153.6207  147.4630 H       1  UNL11       0.2034
     26 H         119.1821  153.1197  147.1245 H       1  UNL11       0.0347
     27 H         119.6135  156.0046  146.6386 H       1  UNL11       0.0402
     28 H         117.5380  155.9409  145.6818 H       1  UNL11       0.0860
     29 H         121.6873  152.8436  147.7627 H       1  UNL11       0.0766
     30 H         120.3679  155.2133  148.8200 H       1  UNL11       0.0321
     31 H         119.6737  153.6571  149.2524 H       1  UNL11       0.0321
     32 H         117.6855  154.8209  149.4809 H       1  UNL11       0.0814
     33 H         118.2540  156.1980  148.5004 H       1  UNL11       0.0814
     34 H         122.5457  154.9930  146.8671 H       1  UNL11       0.0693
     35 H         117.6377  154.2755  143.8745 H       1  UNL11       0.0368
     36 H         116.2645  153.9037  144.8907 H       1  UNL11       0.0368
     37 H         119.9648  155.7677  144.0610 H       1  UNL11       0.0575
     38 H         122.2901  155.1045  144.1140 H       1  UNL11       0.0596
     39 H         115.9501  156.2705  147.4629 H       1  UNL11       0.0778
     40 H         115.5337  154.8617  148.5051 H       1  UNL11       0.0778
     41 H         115.2920  154.7578  146.7389 H       1  UNL11       0.0778
     42 H         119.7663  152.9648  144.0819 H       1  UNL11       0.0658
     43 H         116.1290  151.6057  145.9509 H       1  UNL11       0.0621
     44 H         117.3838  149.8001  147.0371 H       1  UNL11       0.0655
     45 H         120.4481  147.9971  148.0911 H       1  UNL11       0.0660
     46 H         119.2546  148.0071  146.7837 H       1  UNL11       0.0660
     47 H         118.8401  148.6565  148.4154 H       1  UNL11       0.0660
@<TRIPOS>UNITY_ATOM_ATTR
4 1
charge 1
@<TRIPOS>BOND
     1     1     9    1
     2     1    18    1
     3     2    12    1
     4     2    23    1
     5     3    21    1
     6     3    24    1
     7     4     8    1
     8     4    11    1
     9     4    16    1
    10     5    23    3
    11     6     7    1
    12     6     9    1
    13     6    10    1
    14     7     8    1
    15     7    14    1
    16     8    13    1
    17     9    12    1
    18    10    11    1
    19    12    15    1
    20    13    17    1
    21    14    15    2
    22    17    19   ar
    23    17    20   ar
    24    18    19   ar
    25    18    21   ar
    26    20    22   ar
    27    21    22   ar
    28     4    25    1
    29     6    26    1
    30     7    27    1
    31     8    28    1
    32     9    29    1
    33    10    30    1
    34    10    31    1
    35    11    32    1
    36    11    33    1
    37    12    34    1
    38    13    35    1
    39    13    36    1
    40    14    37    1
    41    15    38    1
    42    16    39    1
    43    16    40    1
    44    16    41    1
    45    19    42    1
    46    20    43    1
    47    22    44    1
    48    24    45    1
    49    24    46    1
    50    24    47    1
@<TRIPOS>MOLECULE
133562480
 51 56 0 0 0
SMALL
GASTEIGER

@<TRIPOS>ATOM
      1 BR        124.4027  153.4783  144.9026 Br      1  UNL11      -0.0499
      2 O         119.0793  154.6978  147.4079 O.3     1  UNL11      -0.4786
      3 O         116.5080  152.2890  146.2209 O.3     1  UNL11      -0.3432
      4 O         116.5938  154.6283  146.0647 O.3     1  UNL11      -0.3432
      5 O         120.9176  156.7969  147.1394 O.3     1  UNL11      -0.4914
      6 N         120.8092  149.7501  147.0167 N.4     1  UNL11       0.2357
      7 C         119.5049  152.3393  147.0060 C.3     1  UNL11       0.0543
      8 C         119.3163  151.3470  145.8522 C.3     1  UNL11       0.0160
      9 C         118.4110  153.4148  147.2060 C.3     1  UNL11       0.1641
     10 C         120.6416  150.5501  145.7101 C.3     1  UNL11      -0.0132
     11 C         119.7865  151.5957  148.3290 C.3     1  UNL11       0.0013
     12 C         117.3825  153.4325  146.0457 C.3     1  UNL11       0.2084
     13 C         120.6505  153.2218  146.6491 C.ar    1  UNL11       0.0129
     14 C         118.8726  152.0049  144.5251 C.3     1  UNL11      -0.0392
     15 C         118.0634  153.3003  144.6828 C.3     1  UNL11       0.0056
     16 C         121.8884  151.4465  145.4178 C.3     1  UNL11       0.0173
     17 C         120.9468  150.6113  148.2478 C.3     1  UNL11      -0.0309
     18 C         121.8060  152.8463  145.9812 C.ar    1  UNL11      -0.0206
     19 C         120.3659  154.5338  146.9654 C.ar    1  UNL11       0.1667
     20 C         121.8752  148.6865  146.9504 C.3     1  UNL11      -0.0428
     21 C         122.7576  153.8517  145.7713 C.ar    1  UNL11       0.0252
     22 C         121.2916  155.5424  146.7617 C.ar    1  UNL11       0.1629
     23 C         115.1859  152.8198  146.0759 C.3     1  UNL11       0.0745
     24 C         115.3206  154.2336  146.5688 C.3     1  UNL11       0.0745
     25 C         122.5129  155.1820  146.1784 C.ar    1  UNL11      -0.0020
     26 C         121.8235  157.8594  146.8708 C.3     1  UNL11       0.0790
     27 H         119.9327  149.2219  147.1338 H       1  UNL11       0.2033
     28 H         118.5195  150.6421  146.1308 H       1  UNL11       0.0365
     29 H         117.8562  153.2250  148.1348 H       1  UNL11       0.0797
     30 H         120.5399  149.7923  144.9239 H       1  UNL11       0.0857
     31 H         118.8821  151.0441  148.6197 H       1  UNL11       0.0327
     32 H         119.9891  152.3037  149.1434 H       1  UNL11       0.0327
     33 H         118.2651  151.2724  143.9769 H       1  UNL11       0.0272
     34 H         119.7250  152.2115  143.8680 H       1  UNL11       0.0272
     35 H         118.7112  154.1687  144.5090 H       1  UNL11       0.0318
     36 H         117.3137  153.3422  143.8818 H       1  UNL11       0.0318
     37 H         121.9602  151.5433  144.3265 H       1  UNL11       0.0369
     38 H         122.8102  150.9652  145.7556 H       1  UNL11       0.0369
     39 H         121.9198  151.1110  148.2080 H       1  UNL11       0.0815
     40 H         120.9374  149.9421  149.1151 H       1  UNL11       0.0815
     41 H         122.8592  149.1593  146.9601 H       1  UNL11       0.0778
     42 H         121.7221  148.1058  146.0375 H       1  UNL11       0.0778
     43 H         121.7544  148.0413  147.8249 H       1  UNL11       0.0778
     44 H         114.4681  152.2261  146.6470 H       1  UNL11       0.0584
     45 H         114.9229  152.7854  145.0132 H       1  UNL11       0.0584
     46 H         114.5344  154.8985  146.2034 H       1  UNL11       0.0584
     47 H         115.3568  154.2787  147.6626 H       1  UNL11       0.0584
     48 H         123.2794  155.9299  145.9948 H       1  UNL11       0.0666
     49 H         121.3578  158.7902  147.2085 H       1  UNL11       0.0660
     50 H         122.0158  157.9523  145.7968 H       1  UNL11       0.0660
     51 H         122.7563  157.7308  147.4294 H       1  UNL11       0.0660
@<TRIPOS>UNITY_ATOM_ATTR
6 1
charge 1
@<TRIPOS>BOND
     1     1    21    1
     2     2     9    1
     3     2    19    1
     4     3    12    1
     5     3    23    1
     6     4    12    1
     7     4    24    1
     8     5    22    1
     9     5    26    1
    10     6    10    1
    11     6    17    1
    12     6    20    1
    13     7     8    1
    14     7     9    1
    15     7    11    1
    16     7    13    1
    17     8    10    1
    18     8    14    1
    19     9    12    1
    20    10    16    1
    21    11    17    1
    22    12    15    1
    23    13    18   ar
    24    13    19   ar
    25    14    15    1
    26    16    18    1
    27    18    21   ar
    28    19    22   ar
    29    21    25   ar
    30    22    25   ar
    31    23    24    1
    32     6    27    1
    33     8    28    1
    34     9    29    1
    35    10    30    1
    36    11    31    1
    37    11    32    1
    38    14    33    1
    39    14    34    1
    40    15    35    1
    41    15    36    1
    42    16    37    1
    43    16    38    1
    44    17    39    1
    45    17    40    1
    46    20    41    1
    47    20    42    1
    48    20    43    1
    49    23    44    1
    50    23    45    1
    51    24    46    1
    52    24    47    1
    53    25    48    1
    54    26    49    1
    55    26    50    1
    56    26    51    1
@<TRIPOS>MOLECULE
163285659
 26 30 0 0 0
SMALL
GASTEIGER

@<TRIPOS>ATOM
      1 O         121.7983  154.0821  147.3579 O.2     1  UNL111     -0.4731
      2 O         115.4925  153.3609  146.3641 O.co2   1  UNL111     -0.7737
      3 O         121.4877  156.6902  146.3704 O.3     1  UNL111     -0.2144
      4 O         123.9176  152.2638  146.6917 O.2     1  UNL111     -0.4684
      5 N         116.5009  152.4677  146.5256 N.3     1  UNL111      0.2385
      6 C         119.4343  153.6956  147.0092 C.3     1  UNL111      0.0759
      7 C         118.4161  153.9694  145.8284 C.3     1  UNL111      0.0789
      8 C         117.5890  152.7544  145.4954 C.3     1  UNL111      0.0618
      9 C         120.5320  154.7364  147.2787 C.3     1  UNL111      0.2046
     10 C         118.5467  153.3354  148.1336 C.3     1  UNL111      0.0690
     11 C         120.3089  152.5359  146.5909 C.2     1  UNL111      0.0146
     12 C         117.1612  152.7513  147.8270 C.3     1  UNL111      0.1032
     13 C         118.5646  151.6843  145.3034 C.3     1  UNL111      0.0813
     14 C         119.9005  151.4816  145.7738 C.2     1  UNL111     -0.0172
     15 C         120.4651  155.9830  146.4874 C.3     1  UNL111      0.2136
     16 C         118.6147  155.1879  145.1478 C.2     1  UNL111     -0.0223
     17 C         121.6372  152.8076  146.8556 C.2     1  UNL111      0.1680
     18 C         119.4587  155.9739  145.4750 C.2     1  UNL111      0.0054
     19 C         115.9969  151.0656  146.4886 C.3     1  UNL111     -0.0420
     20 C         120.8533  150.5909  145.3204 C.2     1  UNL111     -0.0011
     21 C         122.6149  151.9307  146.4378 C.2     1  UNL111      0.1720
     22 C         122.1988  150.8030  145.6932 C.2     1  UNL111      0.0397
     23 C         124.8274  151.1982  146.5730 C.3     1  UNL111      0.2526
     24 H         115.6244  150.8764  145.4778 H       1  UNL111      0.0777
     25 H         115.1796  150.9961  147.2133 H       1  UNL111      0.0777
     26 H         116.8024  150.3776  146.7590 H       1  UNL111      0.0777
@<TRIPOS>UNITY_ATOM_ATTR
2 1
charge -1
5 1
charge 1
@<TRIPOS>BOND
     1     1     9    1
     2     1    17    1
     3     2     5    1
     4     3    15    1
     5     4    21    1
     6     4    23    1
     7     5     8    1
     8     5    12    1
     9     5    19    1
    10     6     7    1
    11     6     9    1
    12     6    10    1
    13     6    11    1
    14     7     8    1
    15     7    16    1
    16     8    13    1
    17     9    15    1
    18    10    12    1
    19    11    14    2
    20    11    17    1
    21    13    14    1
    22    14    20    1
    23    15    18    1
    24    16    18    2
    25    17    21    2
    26    20    22    2
    27    21    22    1
    28    19    24    1
    29    19    25    1
    30    19    26    1
@<TRIPOS>MOLECULE
5492830
 43 47 0 0 0
SMALL
GASTEIGER

@<TRIPOS>ATOM
      1 O         121.3753  154.3869  147.6213 O.3     1  UNL11      -0.4836
      2 O         123.6676  152.8388  147.0098 O.3     1  UNL11      -0.4914
      3 N         116.7831  152.1215  146.9510 N.4     1  UNL11       0.2359
      4 C         119.1045  153.8651  147.0281 C.3     1  UNL11       0.0528
      5 C         117.9620  154.1157  146.0375 C.3     1  UNL11       0.0338
      6 C         117.3927  152.7154  145.6556 C.3     1  UNL11      -0.0097
      7 C         120.0891  155.0187  147.2960 C.3     1  UNL11       0.1143
      8 C         118.5338  153.2588  148.3288 C.3     1  UNL11       0.0014
      9 C         120.0930  152.9107  146.4482 C.ar    1  UNL11       0.0119
     10 C         118.4396  151.7617  144.9965 C.3     1  UNL11       0.0165
     11 C         117.7665  151.9591  148.0902 C.3     1  UNL11      -0.0309
     12 C         119.8261  151.8856  145.5634 C.ar    1  UNL11      -0.0345
     13 C         120.3030  155.9974  146.1153 C.3     1  UNL11       0.0033
     14 C         118.3623  154.9719  144.8696 C.2     1  UNL11      -0.0785
     15 C         121.3679  153.2269  146.8775 C.ar    1  UNL11       0.1664
     16 C         119.4040  155.8133  144.9223 C.2     1  UNL11      -0.0839
     17 C         115.9741  150.8712  146.7279 C.3     1  UNL11      -0.0428
     18 C         120.9086  151.0978  145.1747 C.ar    1  UNL11      -0.0544
     19 C         122.4567  152.4567  146.5175 C.ar    1  UNL11       0.1618
     20 C         122.2087  151.3705  145.6641 C.ar    1  UNL11      -0.0160
     21 C         124.8055  152.1042  146.5777 C.3     1  UNL11       0.0790
     22 H         116.0947  152.8161  147.2725 H       1  UNL11       0.2034
     23 H         117.1643  154.6803  146.5428 H       1  UNL11       0.0408
     24 H         116.5390  152.8339  144.9767 H       1  UNL11       0.0860
     25 H         119.7842  155.5945  148.1787 H       1  UNL11       0.0745
     26 H         117.8612  153.9901  148.7965 H       1  UNL11       0.0327
     27 H         119.3265  153.0629  149.0625 H       1  UNL11       0.0327
     28 H         118.5046  152.0293  143.9336 H       1  UNL11       0.0368
     29 H         118.1137  150.7186  145.0398 H       1  UNL11       0.0368
     30 H         118.4260  151.1193  147.8499 H       1  UNL11       0.0815
     31 H         117.1849  151.6954  148.9806 H       1  UNL11       0.0815
     32 H         121.3435  155.9537  145.7698 H       1  UNL11       0.0343
     33 H         120.1537  157.0201  146.4846 H       1  UNL11       0.0343
     34 H         117.7553  154.9502  143.9657 H       1  UNL11       0.0574
     35 H         119.6322  156.4336  144.0555 H       1  UNL11       0.0570
     36 H         116.6484  150.0376  146.5215 H       1  UNL11       0.0778
     37 H         115.2933  151.0492  145.8918 H       1  UNL11       0.0778
     38 H         115.4005  150.6803  147.6390 H       1  UNL11       0.0778
     39 H         120.7760  150.2783  144.4702 H       1  UNL11       0.0622
     40 H         123.0173  150.7264  145.3281 H       1  UNL11       0.0655
     41 H         125.6900  152.5554  147.0375 H       1  UNL11       0.0660
     42 H         124.9265  152.1654  145.4911 H       1  UNL11       0.0660
     43 H         124.7505  151.0626  146.9109 H       1  UNL11       0.0660
@<TRIPOS>UNITY_ATOM_ATTR
3 1
charge 1
@<TRIPOS>BOND
     1     1     7    1
     2     1    15    1
     3     2    19    1
     4     2    21    1
     5     3     6    1
     6     3    11    1
     7     3    17    1
     8     4     5    1
     9     4     7    1
    10     4     8    1
    11     4     9    1
    12     5     6    1
    13     5    14    1
    14     6    10    1
    15     7    13    1
    16     8    11    1
    17     9    12   ar
    18     9    15   ar
    19    10    12    1
    20    12    18   ar
    21    13    16    1
    22    14    16    2
    23    15    19   ar
    24    18    20   ar
    25    19    20   ar
    26     3    22    1
    27     5    23    1
    28     6    24    1
    29     7    25    1
    30     8    26    1
    31     8    27    1
    32    10    28    1
    33    10    29    1
    34    11    30    1
    35    11    31    1
    36    13    32    1
    37    13    33    1
    38    14    34    1
    39    16    35    1
    40    17    36    1
    41    17    37    1
    42    17    38    1
    43    18    39    1
    44    20    40    1
    45    21    41    1
    46    21    42    1
    47    21    43    1
@<TRIPOS>MOLECULE
71314974
 29 33 0 0 0
SMALL
GASTEIGER

@<TRIPOS>ATOM
      1 O         118.0801  154.3083  145.8033 O.2     1  UNL11      -0.4731
      2 O         119.7935  157.0808  146.0783 O.3     1  UNL11      -0.2144
      3 O         115.8955  152.4034  145.9602 O.2     1  UNL11      -0.4908
      4 N         123.3169  152.5719  146.3449 N.4     1  UNL11       0.2565
      5 C         120.4116  153.7344  145.9423 C.3     1  UNL11       0.0759
      6 C         121.3125  153.6809  147.2431 C.3     1  UNL11       0.0790
      7 C         122.1609  152.4645  147.2702 C.3     1  UNL11       0.0627
      8 C         119.3930  154.8523  145.8645 C.3     1  UNL11       0.2046
      9 C         121.3783  153.6546  144.8343 C.3     1  UNL11       0.0691
     10 C         119.5084  152.5400  146.0220 C.2     1  UNL11       0.0146
     11 C         121.2382  151.3570  147.0404 C.3     1  UNL11       0.0814
     12 C         122.7604  153.0834  145.0724 C.3     1  UNL11       0.1042
     13 C         119.9051  151.2906  146.5054 C.2     1  UNL11      -0.0172
     14 C         119.6258  156.0247  146.7259 C.3     1  UNL11       0.2136
     15 C         121.2919  154.8366  148.0440 C.2     1  UNL11      -0.0223
     16 C         118.1875  152.9296  145.9043 C.2     1  UNL11       0.1679
     17 C         120.5647  155.7503  147.7751 C.2     1  UNL11       0.0054
     18 C         124.0937  151.3159  146.2258 C.3     1  UNL11      -0.0413
     19 C         118.9271  150.3448  146.7366 C.2     1  UNL11      -0.0011
     20 C         117.1893  151.9980  146.1006 C.2     1  UNL11       0.1702
     21 C         117.5826  150.6944  146.4765 C.2     1  UNL11       0.0397
     22 C         114.9081  151.4112  146.2166 C.3     1  UNL11       0.0790
     23 H         123.9267  153.3230  146.7038 H       1  UNL11       0.2050
     24 H         123.4863  150.5400  145.7492 H       1  UNL11       0.0778
     25 H         124.4129  151.0066  147.2256 H       1  UNL11       0.0778
     26 H         124.9753  151.5252  145.6125 H       1  UNL11       0.0778
     27 H         113.9265  151.8654  146.0513 H       1  UNL11       0.0660
     28 H         114.9505  151.0734  147.2574 H       1  UNL11       0.0660
     29 H         115.0060  150.5668  145.5259 H       1  UNL11       0.0660
@<TRIPOS>UNITY_ATOM_ATTR
4 1
charge 1
@<TRIPOS>BOND
     1     1     8    1
     2     1    16    1
     3     2    14    1
     4     3    20    1
     5     3    22    1
     6     4     7    1
     7     4    12    1
     8     4    18    1
     9     5     6    1
    10     5     8    1
    11     5     9    1
    12     5    10    1
    13     6     7    1
    14     6    15    1
    15     7    11    1
    16     8    14    1
    17     9    12    1
    18    10    13    2
    19    10    16    1
    20    11    13    1
    21    13    19    1
    22    14    17    1
    23    15    17    2
    24    16    20    2
    25    19    21    2
    26    20    21    1
    27     4    23    1
    28    18    24    1
    29    18    25    1
    30    18    26    1
    31    22    27    1
    32    22    28    1
    33    22    29    1
@<TRIPOS>MOLECULE
5357395
 44 48 0 0 0
SMALL
GASTEIGER

@<TRIPOS>ATOM
      1 O         118.2869  154.1212  147.5717 O.3     1  UNL11      -0.4763
      2 O         118.3162  156.7136  146.3335 O.2     1  UNL11      -0.5076
      3 O         116.1404  152.3809  146.9888 O.3     1  UNL11      -0.4914
      4 N         123.1226  152.3018  146.9244 N.4     1  UNL11       0.2357
      5 C         120.6122  153.7437  147.0243 C.3     1  UNL11       0.0565
      6 C         121.6852  154.0848  145.9840 C.3     1  UNL11       0.0196
      7 C         122.4091  152.7580  145.6311 C.3     1  UNL11      -0.0129
      8 C         119.5470  154.8179  147.3153 C.3     1  UNL11       0.1665
      9 C         121.2728  153.2254  148.3191 C.3     1  UNL11       0.0015
     10 C         119.7071  152.6997  146.4753 C.ar    1  UNL11       0.0121
     11 C         121.4631  151.6453  145.0624 C.3     1  UNL11       0.0162
     12 C         121.1386  154.8137  144.7412 C.3     1  UNL11      -0.0223
     13 C         122.1924  152.0303  148.0852 C.3     1  UNL11      -0.0309
     14 C         120.0651  151.6743  145.6223 C.ar    1  UNL11      -0.0345
     15 C         118.4049  152.9376  146.8742 C.ar    1  UNL11       0.1671
     16 C         119.3445  155.8043  146.1849 C.2     1  UNL11       0.1314
     17 C         120.0632  155.8075  145.0550 C.2     1  UNL11      -0.0425
     18 C         124.1024  151.1757  146.7170 C.3     1  UNL11      -0.0428
     19 C         119.0516  150.7929  145.2495 C.ar    1  UNL11      -0.0544
     20 C         117.3841  152.0748  146.5254 C.ar    1  UNL11       0.1618
     21 C         117.7274  150.9816  145.7146 C.ar    1  UNL11      -0.0160
     22 C         115.0707  151.5373  146.5812 C.3     1  UNL11       0.0790
     23 H         117.6720  156.3300  146.9622 H       1  UNL11       0.2918
     24 H         123.7099  153.0969  147.2126 H       1  UNL11       0.2033
     25 H         122.4066  154.7736  146.4491 H       1  UNL11       0.0369
     26 H         123.2175  152.9513  144.9158 H       1  UNL11       0.0857
     27 H         119.8004  155.3862  148.2190 H       1  UNL11       0.0825
     28 H         120.5197  152.9440  149.0667 H       1  UNL11       0.0327
     29 H         121.8586  154.0392  148.7673 H       1  UNL11       0.0327
     30 H         121.8903  150.6473  145.1942 H       1  UNL11       0.0368
     31 H         121.3776  151.8101  143.9804 H       1  UNL11       0.0368
     32 H         120.7420  154.1126  143.9988 H       1  UNL11       0.0313
     33 H         121.9712  155.3349  144.2528 H       1  UNL11       0.0313
     34 H         122.8191  151.8573  148.9671 H       1  UNL11       0.0815
     35 H         121.6401  151.1104  147.8694 H       1  UNL11       0.0815
     36 H         119.8168  156.5360  144.2835 H       1  UNL11       0.0606
     37 H         123.5544  150.2473  146.5447 H       1  UNL11       0.0778
     38 H         124.7117  151.0955  147.6215 H       1  UNL11       0.0778
     39 H         124.7369  151.4276  145.8637 H       1  UNL11       0.0778
     40 H         119.2551  149.9639  144.5734 H       1  UNL11       0.0622
     41 H         116.9751  150.2666  145.3909 H       1  UNL11       0.0655
     42 H         114.1483  151.9309  147.0190 H       1  UNL11       0.0660
     43 H         115.2093  150.5177  146.9557 H       1  UNL11       0.0660
     44 H         114.9537  151.5458  145.4925 H       1  UNL11       0.0660
@<TRIPOS>UNITY_ATOM_ATTR
4 1
charge 1
@<TRIPOS>BOND
     1     1     8    1
     2     1    15    1
     3     2    16    1
     4     3    20    1
     5     3    22    1
     6     4     7    1
     7     4    13    1
     8     4    18    1
     9     5     6    1
    10     5     8    1
    11     5     9    1
    12     5    10    1
    13     6     7    1
    14     6    12    1
    15     7    11    1
    16     8    16    1
    17     9    13    1
    18    10    14   ar
    19    10    15   ar
    20    11    14    1
    21    12    17    1
    22    14    19   ar
    23    15    20   ar
    24    16    17    2
    25    19    21   ar
    26    20    21   ar
    27     2    23    1
    28     4    24    1
    29     6    25    1
    30     7    26    1
    31     8    27    1
    32     9    28    1
    33     9    29    1
    34    11    30    1
    35    11    31    1
    36    12    32    1
    37    12    33    1
    38    13    34    1
    39    13    35    1
    40    17    36    1
    41    18    37    1
    42    18    38    1
    43    18    39    1
    44    19    40    1
    45    21    41    1
    46    22    42    1
    47    22    43    1
    48    22    44    1
@<TRIPOS>MOLECULE
16219112
 44 48 0 0 0
SMALL
GASTEIGER

@<TRIPOS>ATOM
      1 O         118.3350  152.1013  147.6960 O.3     1  UNL11      -0.4811
      2 O         117.8980  150.2895  145.8647 O.3     1  UNL11      -0.3841
      3 O         116.2050  153.8522  147.1066 O.3     1  UNL11      -0.4914
      4 N         123.1512  153.8584  146.8894 N.4     1  UNL11       0.2359
      5 C         120.6492  152.3881  147.0599 C.3     1  UNL11       0.0553
      6 C         121.7164  152.0177  146.0216 C.3     1  UNL11       0.0339
      7 C         122.4284  153.3459  145.6188 C.3     1  UNL11      -0.0097
      8 C         119.5565  151.3459  147.3810 C.3     1  UNL11       0.1402
      9 C         121.3318  152.9348  148.3332 C.3     1  UNL11       0.0015
     10 C         119.7496  153.4414  146.5056 C.ar    1  UNL11       0.0120
     11 C         121.4734  154.4172  145.0043 C.3     1  UNL11       0.0165
     12 C         122.2345  154.1374  148.0600 C.3     1  UNL11      -0.0309
     13 C         120.0975  154.4335  145.6101 C.ar    1  UNL11      -0.0345
     14 C         119.2675  150.3069  146.2539 C.3     1  UNL11       0.1110
     15 C         121.1644  151.2283  144.8685 C.2     1  UNL11      -0.0761
     16 C         118.4573  153.2562  146.9550 C.ar    1  UNL11       0.1666
     17 C         120.0691  150.4648  144.9933 C.2     1  UNL11      -0.0558
     18 C         124.0971  155.0029  146.6335 C.3     1  UNL11      -0.0428
     19 C         119.0919  155.3258  145.2388 C.ar    1  UNL11      -0.0544
     20 C         117.4413  154.1246  146.6038 C.ar    1  UNL11       0.1618
     21 C         117.7794  155.1822  145.7472 C.ar    1  UNL11      -0.0160
     22 C         115.1293  154.6650  146.6535 C.3     1  UNL11       0.0790
     23 H         117.4035  150.8416  146.5020 H       1  UNL11       0.2104
     24 H         123.7642  153.0869  147.1876 H       1  UNL11       0.2034
     25 H         122.4641  151.3603  146.4895 H       1  UNL11       0.0408
     26 H         123.2355  153.1337  144.9066 H       1  UNL11       0.0860
     27 H         119.8225  150.7892  148.2888 H       1  UNL11       0.0772
     28 H         121.9331  152.1340  148.7838 H       1  UNL11       0.0327
     29 H         120.5919  153.2229  149.0913 H       1  UNL11       0.0327
     30 H         121.3502  154.1753  143.9403 H       1  UNL11       0.0368
     31 H         121.9100  155.4189  145.0515 H       1  UNL11       0.0368
     32 H         121.6675  155.0465  147.8365 H       1  UNL11       0.0815
     33 H         122.8731  154.3346  148.9281 H       1  UNL11       0.0815
     34 H         119.4898  149.3088  146.6507 H       1  UNL11       0.0675
     35 H         121.6908  151.2323  143.9155 H       1  UNL11       0.0575
     36 H         119.7230  149.8831  144.1390 H       1  UNL11       0.0596
     37 H         123.5216  155.9123  146.4497 H       1  UNL11       0.0778
     38 H         124.7205  154.7451  145.7738 H       1  UNL11       0.0778
     39 H         124.7223  155.1209  147.5228 H       1  UNL11       0.0778
     40 H         119.2926  156.1263  144.5283 H       1  UNL11       0.0622
     41 H         117.0319  155.9003  145.4202 H       1  UNL11       0.0655
     42 H         114.2091  154.2877  147.1098 H       1  UNL11       0.0660
     43 H         115.0137  154.5995  145.5664 H       1  UNL11       0.0660
     44 H         115.2602  155.7035  146.9748 H       1  UNL11       0.0660
@<TRIPOS>UNITY_ATOM_ATTR
4 1
charge 1
@<TRIPOS>BOND
     1     1     8    1
     2     1    16    1
     3     2    14    1
     4     3    20    1
     5     3    22    1
     6     4     7    1
     7     4    12    1
     8     4    18    1
     9     5     6    1
    10     5     8    1
    11     5     9    1
    12     5    10    1
    13     6     7    1
    14     6    15    1
    15     7    11    1
    16     8    14    1
    17     9    12    1
    18    10    13   ar
    19    10    16   ar
    20    11    13    1
    21    13    19   ar
    22    14    17    1
    23    15    17    2
    24    16    20   ar
    25    19    21   ar
    26    20    21   ar
    27     2    23    1
    28     4    24    1
    29     6    25    1
    30     7    26    1
    31     8    27    1
    32     9    28    1
    33     9    29    1
    34    11    30    1
    35    11    31    1
    36    12    32    1
    37    12    33    1
    38    14    34    1
    39    15    35    1
    40    17    36    1
    41    18    37    1
    42    18    38    1
    43    18    39    1
    44    19    40    1
    45    21    41    1
    46    22    42    1
    47    22    43    1
    48    22    44    1
@<TRIPOS>MOLECULE
59888101
 46 50 0 0 0
SMALL
GASTEIGER

@<TRIPOS>ATOM
      1 O         122.3634  152.6403  145.2101 O.2     1  UNL111     -0.4811
      2 O         122.4016  149.5149  146.3188 O.3     1  UNL111     -0.3841
      3 O         123.9283  155.0924  145.9189 O.2     1  UNL111     -0.4914
      4 O         115.3574  153.2719  147.1207 O.3     1  UNL111     -0.4535
      5 O         115.3491  153.9965  144.9608 O.2     1  UNL111     -0.2263
      6 N         117.3008  153.2169  145.9164 N.am    1  UNL111     -0.2635
      7 C         120.0470  152.3216  145.7938 C.3     1  UNL111      0.0485
      8 C         119.0419  151.6674  146.7450 C.3     1  UNL111      0.0095
      9 C         118.0277  152.7805  147.1372 C.3     1  UNL111      0.0402
     10 C         121.3732  151.5892  145.5382 C.3     1  UNL111      0.1399
     11 C         119.3047  152.6909  144.4903 C.3     1  UNL111     -0.0231
     12 C         120.6384  153.5502  146.3955 C.3     1  UNL111      0.0116
     13 C         118.6801  154.0039  147.8586 C.3     1  UNL111     -0.0079
     14 C         118.0865  153.5891  144.7392 C.3     1  UNL111      0.0191
     15 C         120.0192  154.4011  147.2926 C.3     1  UNL111     -0.0380
     16 C         121.9232  150.7890  146.7565 C.3     1  UNL111      0.1110
     17 C         119.6792  150.9358  147.8939 C.2     1  UNL111     -0.0796
     18 C         121.9409  153.7142  145.9630 C.3     1  UNL111      0.1666
     19 C         120.9561  150.5273  147.8723 C.2     1  UNL111     -0.0559
     20 C         120.7318  155.5368  147.6774 C.3     1  UNL111     -0.0545
     21 C         122.6586  154.8286  146.3405 C.3     1  UNL111      0.1618
     22 C         115.9490  153.5309  145.9225 C.2     1  UNL111      0.4029
     23 C         122.0321  155.7634  147.1766 C.3     1  UNL111     -0.0160
     24 C         124.8595  154.1663  146.4755 C.3     1  UNL111      0.0790
     25 C         113.9629  153.5758  147.1637 C.3     1  UNL111      0.0833
     26 H         123.1265  149.6914  145.6937 H       1  UNL111      0.2104
     27 H         118.4858  150.8921  146.1958 H       1  UNL111      0.0371
     28 H         117.2998  152.3475  147.8329 H       1  UNL111      0.0511
     29 H         121.3020  150.9368  144.6591 H       1  UNL111      0.0772
     30 H         118.9622  151.7645  144.0099 H       1  UNL111      0.0290
     31 H         119.9664  153.1838  143.7668 H       1  UNL111      0.0290
     32 H         118.8396  153.7366  148.9110 H       1  UNL111      0.0331
     33 H         117.9997  154.8632  147.8322 H       1  UNL111      0.0331
     34 H         118.4038  154.6288  144.8840 H       1  UNL111      0.0466
     35 H         117.4509  153.5873  143.8463 H       1  UNL111      0.0466
     36 H         122.7897  151.3039  147.1898 H       1  UNL111      0.0675
     37 H         119.0506  150.6685  148.7406 H       1  UNL111      0.0573
     38 H         121.3453  149.9622  148.7164 H       1  UNL111      0.0596
     39 H         120.2964  156.2525  148.3710 H       1  UNL111      0.0622
     40 H         122.5719  156.6595  147.4737 H       1  UNL111      0.0655
     41 H         125.8661  154.5180  146.2294 H       1  UNL111      0.0660
     42 H         124.7421  153.1668  146.0468 H       1  UNL111      0.0660
     43 H         124.7752  154.1273  147.5678 H       1  UNL111      0.0660
     44 H         113.5923  153.3216  148.1606 H       1  UNL111      0.0661
     45 H         113.4159  152.9764  146.4291 H       1  UNL111      0.0661
     46 H         113.7976  154.6446  146.9957 H       1  UNL111      0.0661
@<TRIPOS>BOND
     1     1    10    1
     2     1    18    1
     3     2    16    1
     4     3    21    1
     5     3    24    1
     6     4    22    1
     7     4    25    1
     8     5    22    2
     9     6     9    1
    10     6    14    1
    11     6    22   am
    12     7     8    1
    13     7    10    1
    14     7    11    1
    15     7    12    1
    16     8     9    1
    17     8    17    1
    18     9    13    1
    19    10    16    1
    20    11    14    1
    21    12    15   ar
    22    12    18   ar
    23    13    15    1
    24    15    20   ar
    25    16    19    1
    26    17    19    2
    27    18    21   ar
    28    20    23   ar
    29    21    23   ar
    30     2    26    1
    31     8    27    1
    32     9    28    1
    33    10    29    1
    34    11    30    1
    35    11    31    1
    36    13    32    1
    37    13    33    1
    38    14    34    1
    39    14    35    1
    40    16    36    1
    41    17    37    1
    42    19    38    1
    43    20    39    1
    44    23    40    1
    45    24    41    1
    46    24    42    1
    47    24    43    1
    48    25    44    1
    49    25    45    1
    50    25    46    1
@<TRIPOS>MOLECULE
91747732
 56 60 0 0 0
SMALL
GASTEIGER

@<TRIPOS>ATOM
      1 SI        115.6564  152.3889  146.1602 Si      1  UNL11       0.0000
      2 O         118.8928  153.5447  147.5699 O.3     1  UNL11       0.0000
      3 O         117.2561  152.5914  145.6924 O.3     1  UNL11       0.0000
      4 O         118.7777  156.3386  147.1125 O.3     1  UNL11       0.0000
      5 N         123.4787  151.2581  146.8378 N.4     1  UNL11       1.0000
      6 C         120.6883  152.0679  146.9340 C.3     1  UNL11       0.0000
      7 C         121.1849  151.0697  145.8806 C.3     1  UNL11       0.0000
      8 C         119.1705  152.1475  147.2114 C.3     1  UNL11       0.0000
      9 C         122.6550  151.4676  145.5438 C.3     1  UNL11       0.0000
     10 C         121.5107  151.9085  148.2321 C.3     1  UNL11       0.0000
     11 C         120.8615  153.4601  146.4236 C.ar    1  UNL11       0.0000
     12 C         122.8021  152.9114  144.9700 C.3     1  UNL11       0.0000
     13 C         123.0123  152.0857  148.0152 C.3     1  UNL11       0.0000
     14 C         118.2501  151.6346  146.0505 C.3     1  UNL11       0.0000
     15 C         121.8576  153.9098  145.5780 C.ar    1  UNL11       0.0000
     16 C         120.2791  150.9894  144.6850 C.2     1  UNL11       0.0000
     17 C         119.8340  154.2659  146.8732 C.ar    1  UNL11       0.0000
     18 C         118.9680  151.2570  144.7761 C.2     1  UNL11       0.0000
     19 C         121.8454  155.2666  145.2586 C.ar    1  UNL11       0.0000
     20 C         124.9678  151.3629  146.6359 C.3     1  UNL11       0.0000
     21 C         119.8076  155.6180  146.5868 C.ar    1  UNL11       0.0000
     22 C         120.8403  156.1159  145.7768 C.ar    1  UNL11       0.0000
     23 C         115.5217  151.7867  147.9366 C.3     1  UNL11       0.0000
     24 C         114.8329  151.1185  145.0415 C.3     1  UNL11       0.0000
     25 C         114.7206  154.0092  146.0136 C.3     1  UNL11       0.0000
     26 C         118.6793  157.7033  146.7265 C.3     1  UNL11       0.0000
     27 H         123.3273  150.2758  147.1055 H       1  UNL11       0.0000
     28 H         121.1948  150.0582  146.3125 H       1  UNL11       0.0000
     29 H         118.9244  151.5545  148.1021 H       1  UNL11       0.0000
     30 H         123.0773  150.7522  144.8270 H       1  UNL11       0.0000
     31 H         121.3263  150.9087  148.6473 H       1  UNL11       0.0000
     32 H         121.1867  152.6217  149.0014 H       1  UNL11       0.0000
     33 H         122.5701  152.8646  143.8977 H       1  UNL11       0.0000
     34 H         123.8304  153.2742  145.0539 H       1  UNL11       0.0000
     35 H         123.2915  153.1274  147.8291 H       1  UNL11       0.0000
     36 H         123.5644  151.7338  148.8937 H       1  UNL11       0.0000
     37 H         117.7876  150.6959  146.3901 H       1  UNL11       0.0000
     38 H         120.6816  150.6704  143.7255 H       1  UNL11       0.0000
     39 H         118.3433  151.1611  143.8889 H       1  UNL11       0.0000
     40 H         122.5923  155.6880  144.5879 H       1  UNL11       0.0000
     41 H         125.2390  152.4101  146.4878 H       1  UNL11       0.0000
     42 H         125.2386  150.7547  145.7694 H       1  UNL11       0.0000
     43 H         125.4525  150.9673  147.5327 H       1  UNL11       0.0000
     44 H         120.8782  157.1661  145.4995 H       1  UNL11       0.0000
     45 H         115.9885  150.8044  148.0540 H       1  UNL11       0.0000
     46 H         114.4715  151.6995  148.2314 H       1  UNL11       0.0000
     47 H         116.0132  152.4858  148.6192 H       1  UNL11       0.0000
     48 H         115.3442  150.1541  145.1140 H       1  UNL11       0.0000
     49 H         114.8686  151.4482  143.9989 H       1  UNL11       0.0000
     50 H         113.7855  150.9760  145.3229 H       1  UNL11       0.0000
     51 H         115.1494  154.7628  146.6806 H       1  UNL11       0.0000
     52 H         113.6688  153.8721  146.2822 H       1  UNL11       0.0000
     53 H         114.7662  154.3905  144.9894 H       1  UNL11       0.0000
     54 H         117.7831  158.1209  147.1952 H       1  UNL11       0.0000
     55 H         118.5654  157.8012  145.6417 H       1  UNL11       0.0000
     56 H         119.5406  158.2763  147.0858 H       1  UNL11       0.0000
@<TRIPOS>UNITY_ATOM_ATTR
5 1
charge 1
@<TRIPOS>BOND
     1     1     3    1
     2     1    23    1
     3     1    24    1
     4     1    25    1
     5     2     8    1
     6     2    17    1
     7     3    14    1
     8     4    21    1
     9     4    26    1
    10     5     9    1
    11     5    13    1
    12     5    20    1
    13     6     7    1
    14     6     8    1
    15     6    10    1
    16     6    11    1
    17     7     9    1
    18     7    16    1
    19     8    14    1
    20     9    12    1
    21    10    13    1
    22    11    15   ar
    23    11    17   ar
    24    12    15    1
    25    14    18    1
    26    15    19   ar
    27    16    18    2
    28    17    21   ar
    29    19    22   ar
    30    21    22   ar
    31     5    27    1
    32     7    28    1
    33     8    29    1
    34     9    30    1
    35    10    31    1
    36    10    32    1
    37    12    33    1
    38    12    34    1
    39    13    35    1
    40    13    36    1
    41    14    37    1
    42    16    38    1
    43    18    39    1
    44    19    40    1
    45    20    41    1
    46    20    42    1
    47    20    43    1
    48    22    44    1
    49    23    45    1
    50    23    46    1
    51    23    47    1
    52    24    48    1
    53    24    49    1
    54    24    50    1
    55    25    51    1
    56    25    52    1
    57    25    53    1
    58    26    54    1
    59    26    55    1
    60    26    56    1
@<TRIPOS>MOLECULE
124037288
 54 58 0 0 0
SMALL
GASTEIGER

@<TRIPOS>ATOM
      1 O         118.8425  153.1053  147.5544 O.3     1  UNL11      -0.4811
      2 O         117.5982  151.3623  145.8382 O.3     1  UNL11      -0.3666
      3 O         117.8383  155.7061  147.0902 O.3     1  UNL11      -0.4914
      4 O         115.0596  152.6942  146.6955 O.3     1  UNL11      -0.3807
      5 N         123.9608  152.4089  146.9693 N.4     1  UNL11       0.2359
      6 C         121.0574  152.3055  147.0126 C.3     1  UNL11       0.0553
      7 C         121.8579  151.5433  145.9461 C.3     1  UNL11       0.0339
      8 C         123.1381  152.3880  145.6574 C.3     1  UNL11      -0.0097
      9 C         119.5923  151.8802  147.2689 C.3     1  UNL11       0.1404
     10 C         121.8664  152.3920  148.3241 C.3     1  UNL11       0.0015
     11 C         120.7834  153.6858  146.5114 C.ar    1  UNL11       0.0120
     12 C         122.8422  153.8228  145.1214 C.3     1  UNL11       0.0165
     13 C         123.2398  153.0322  148.1434 C.3     1  UNL11      -0.0309
     14 C         118.9503  151.0215  146.1332 C.3     1  UNL11       0.1145
     15 C         121.6048  154.4484  145.7016 C.ar    1  UNL11      -0.0345
     16 C         121.0278  151.2332  144.7289 C.2     1  UNL11      -0.0761
     17 C         119.5284  154.1007  146.9054 C.ar    1  UNL11       0.1666
     18 C         119.7065  151.0200  144.8274 C.2     1  UNL11      -0.0555
     19 C         121.1600  155.7300  145.3783 C.ar    1  UNL11      -0.0544
     20 C         125.3515  152.9653  146.8093 C.3     1  UNL11      -0.0428
     21 C         119.0677  155.3704  146.6097 C.ar    1  UNL11       0.1618
     22 C         119.9108  156.1939  145.8488 C.ar    1  UNL11      -0.0160
     23 C         116.6689  150.8955  146.8250 C.3     1  UNL11       0.0719
     24 C         115.2485  151.3022  146.4328 C.3     1  UNL11       0.0707
     25 C         117.2508  156.8984  146.5879 C.3     1  UNL11       0.0790
     26 C         113.7593  153.1282  146.3244 C.3     1  UNL11       0.0365
     27 H         124.1096  151.4215  147.2187 H       1  UNL11       0.2034
     28 H         122.1745  150.5706  146.3498 H       1  UNL11       0.0408
     29 H         123.7757  151.8597  144.9376 H       1  UNL11       0.0860
     30 H         119.5321  151.2817  148.1876 H       1  UNL11       0.0772
     31 H         121.9973  151.3779  148.7251 H       1  UNL11       0.0327
     32 H         121.3204  152.9556  149.0920 H       1  UNL11       0.0327
     33 H         122.6807  153.7418  144.0383 H       1  UNL11       0.0368
     34 H         123.6963  154.4910  145.2633 H       1  UNL11       0.0368
     35 H         123.1831  154.1118  147.9734 H       1  UNL11       0.0815
     36 H         123.8576  152.8555  149.0308 H       1  UNL11       0.0815
     37 H         118.9745  149.9708  146.4576 H       1  UNL11       0.0678
     38 H         121.5031  151.1512  143.7534 H       1  UNL11       0.0575
     39 H         119.1310  150.7758  143.9357 H       1  UNL11       0.0596
     40 H         121.7532  156.3816  144.7392 H       1  UNL11       0.0622
     41 H         125.2951  154.0486  146.6856 H       1  UNL11       0.0778
     42 H         125.8126  152.4883  145.9410 H       1  UNL11       0.0778
     43 H         125.9143  152.7144  147.7126 H       1  UNL11       0.0778
     44 H         119.6109  157.2022  145.5767 H       1  UNL11       0.0655
     45 H         116.9236  151.3121  147.8047 H       1  UNL11       0.0583
     46 H         116.7284  149.8023  146.8674 H       1  UNL11       0.0583
     47 H         115.0784  151.1066  145.3682 H       1  UNL11       0.0582
     48 H         114.5294  150.7326  147.0320 H       1  UNL11       0.0582
     49 H         116.2312  156.9612  146.9799 H       1  UNL11       0.0660
     50 H         117.1878  156.8829  145.4945 H       1  UNL11       0.0660
     51 H         117.7976  157.7800  146.9379 H       1  UNL11       0.0660
     52 H         113.6830  154.1997  146.5269 H       1  UNL11       0.0524
     53 H         113.0002  152.6057  146.9145 H       1  UNL11       0.0524
     54 H         113.5876  152.9610  145.2567 H       1  UNL11       0.0524
@<TRIPOS>UNITY_ATOM_ATTR
5 1
charge 1
@<TRIPOS>BOND
     1     1     9    1
     2     1    17    1
     3     2    14    1
     4     2    23    1
     5     3    21    1
     6     3    25    1
     7     4    24    1
     8     4    26    1
     9     5     8    1
    10     5    13    1
    11     5    20    1
    12     6     7    1
    13     6     9    1
    14     6    10    1
    15     6    11    1
    16     7     8    1
    17     7    16    1
    18     8    12    1
    19     9    14    1
    20    10    13    1
    21    11    15   ar
    22    11    17   ar
    23    12    15    1
    24    14    18    1
    25    15    19   ar
    26    16    18    2
    27    17    21   ar
    28    19    22   ar
    29    21    22   ar
    30    23    24    1
    31     5    27    1
    32     7    28    1
    33     8    29    1
    34     9    30    1
    35    10    31    1
    36    10    32    1
    37    12    33    1
    38    12    34    1
    39    13    35    1
    40    13    36    1
    41    14    37    1
    42    16    38    1
    43    18    39    1
    44    19    40    1
    45    20    41    1
    46    20    42    1
    47    20    43    1
    48    22    44    1
    49    23    45    1
    50    23    46    1
    51    24    47    1
    52    24    48    1
    53    25    49    1
    54    25    50    1
    55    25    51    1
    56    26    52    1
    57    26    53    1
    58    26    54    1
@<TRIPOS>MOLECULE
129636325
 52 55 0 0 0
SMALL
GASTEIGER

@<TRIPOS>ATOM
      1 O         120.9251  153.8942  146.8965 O.2     1  UNL11      -0.4818
      2 O         122.8804  151.9590  147.0830 O.3     1  UNL11      -0.1722
      3 O         123.7114  152.0732  145.8841 O.3     1  UNL11      -0.2967
      4 O         120.1945  156.2346  145.6439 O.2     1  UNL11      -0.4915
      5 O         124.8719  153.5649  147.2249 O.2     1  UNL11      -0.2479
      6 N         116.6481  151.9769  145.4059 N.4     1  UNL11       0.2359
      7 C         119.3262  152.2486  145.6839 C.3     1  UNL11       0.0152
      8 C         118.6984  151.1857  146.6383 C.3     1  UNL11       0.0270
      9 C         117.1830  151.5306  146.8233 C.3     1  UNL11      -0.0103
     10 C         120.7857  152.7071  146.0104 C.3     1  UNL11       0.1376
     11 C         118.9585  151.8090  144.2686 C.3     1  UNL11      -0.0055
     12 C         117.4551  151.4205  144.2091 C.3     1  UNL11      -0.0315
     13 C         121.5931  151.5420  146.6373 C.3     1  UNL11       0.1603
     14 C         116.8071  152.5942  147.9370 C.3     1  UNL11       0.0162
     15 C         119.5238  150.7994  147.8304 C.2     1  UNL11      -0.0765
     16 C         120.8603  150.9375  147.8112 C.2     1  UNL11      -0.0515
     17 C         115.1813  151.6838  145.2359 C.3     1  UNL11      -0.0428
     18 C         117.5571  153.9072  147.8190 C.3     1  UNL11      -0.0384
     19 C         119.7551  154.5434  147.2222 C.3     1  UNL11       0.1627
     20 C         118.9176  153.8828  148.1097 C.3     1  UNL11      -0.0129
     21 C         117.0402  154.9985  147.1127 C.3     1  UNL11      -0.0547
     22 C         119.2885  155.6231  146.4631 C.3     1  UNL11       0.1615
     23 C         117.9177  155.9035  146.4968 C.3     1  UNL11      -0.0160
     24 C         124.7024  152.9766  146.1659 C.2     1  UNL11       0.3400
     25 C         119.8164  157.4899  145.0914 C.3     1  UNL11       0.0790
     26 C         125.5973  153.1411  144.9731 C.3     1  UNL11       0.0363
     27 H         116.7447  153.0017  145.3624 H       1  UNL11       0.2034
     28 H         118.7436  153.1597  145.7113 H       1  UNL11       0.0347
     29 H         118.6885  150.2268  146.0925 H       1  UNL11       0.0402
     30 H         116.6472  150.6005  147.0536 H       1  UNL11       0.0860
     31 H         121.2760  153.0211  145.0810 H       1  UNL11       0.0767
     32 H         119.5744  150.9651  143.9373 H       1  UNL11       0.0321
     33 H         119.1489  152.6301  143.5664 H       1  UNL11       0.0321
     34 H         116.9972  151.8204  143.2982 H       1  UNL11       0.0814
     35 H         117.3259  150.3327  144.2250 H       1  UNL11       0.0814
     36 H         121.7267  150.7413  145.8972 H       1  UNL11       0.0721
     37 H         117.0202  152.1589  148.9219 H       1  UNL11       0.0368
     38 H         115.7287  152.7875  147.9252 H       1  UNL11       0.0368
     39 H         119.0507  150.3217  148.6862 H       1  UNL11       0.0575
     40 H         121.4602  150.5971  148.6534 H       1  UNL11       0.0597
     41 H         115.0398  150.6003  145.2581 H       1  UNL11       0.0778
     42 H         114.8629  152.0998  144.2765 H       1  UNL11       0.0778
     43 H         114.6341  152.1686  146.0464 H       1  UNL11       0.0778
     44 H         119.3426  153.1153  148.7477 H       1  UNL11       0.0658
     45 H         115.9687  155.1168  146.9660 H       1  UNL11       0.0621
     46 H         117.4940  156.7321  145.9371 H       1  UNL11       0.0655
     47 H         120.6974  157.9223  144.6076 H       1  UNL11       0.0660
     48 H         119.4823  158.1871  145.8671 H       1  UNL11       0.0660
     49 H         119.0472  157.3571  144.3236 H       1  UNL11       0.0660
     50 H         125.2028  152.5967  144.1098 H       1  UNL11       0.0343
     51 H         126.5898  152.7496  145.2085 H       1  UNL11       0.0343
     52 H         125.6545  154.2000  144.7094 H       1  UNL11       0.0343
@<TRIPOS>UNITY_ATOM_ATTR
6 1
charge 1
@<TRIPOS>BOND
     1     1    10    1
     2     1    19    1
     3     2     3    1
     4     2    13    1
     5     3    24    1
     6     4    22    1
     7     4    25    1
     8     5    24    2
     9     6     9    1
    10     6    12    1
    11     6    17    1
    12     7     8    1
    13     7    10    1
    14     7    11    1
    15     8     9    1
    16     8    15    1
    17     9    14    1
    18    10    13    1
    19    11    12    1
    20    13    16    1
    21    14    18    1
    22    15    16    2
    23    18    20   ar
    24    18    21   ar
    25    19    20   ar
    26    19    22   ar
    27    21    23   ar
    28    22    23   ar
    29    24    26    1
    30     6    27    1
    31     7    28    1
    32     8    29    1
    33     9    30    1
    34    10    31    1
    35    11    32    1
    36    11    33    1
    37    12    34    1
    38    12    35    1
    39    13    36    1
    40    14    37    1
    41    14    38    1
    42    15    39    1
    43    16    40    1
    44    17    41    1
    45    17    42    1
    46    17    43    1
    47    20    44    1
    48    21    45    1
    49    23    46    1
    50    25    47    1
    51    25    48    1
    52    25    49    1
    53    26    50    1
    54    26    51    1
    55    26    52    1
@<TRIPOS>MOLECULE
129737557
 51 54 0 0 0
SMALL
GASTEIGER

@<TRIPOS>ATOM
      1 O         118.2176  152.2256  146.8054 O.2     1  UNL11      -0.4862
      2 O         116.1128  154.0134  146.8937 O.3     1  UNL11      -0.3721
      3 O         119.5355  150.2943  145.0172 O.2     1  UNL11      -0.4918
      4 N         122.3980  154.1441  145.5112 N.4     1  UNL11       0.2357
      5 C         119.7323  153.8878  145.6363 C.3     1  UNL11       0.0150
      6 C         120.2644  154.9518  146.6082 C.3     1  UNL11       0.0267
      7 C         121.7622  154.6232  146.8553 C.3     1  UNL11      -0.0138
      8 C         118.2942  153.3721  145.8793 C.3     1  UNL11       0.1331
      9 C         120.1765  154.2859  144.2329 C.3     1  UNL11      -0.0055
     10 C         122.1017  153.6721  148.0370 C.3     1  UNL11      -0.0024
     11 C         121.6759  154.6805  144.2550 C.3     1  UNL11      -0.0315
     12 C         117.3896  154.4887  146.4682 C.3     1  UNL11       0.1134
     13 C         119.3764  155.2768  147.7696 C.2     1  UNL11      -0.0767
     14 C         121.6102  152.2035  148.1982 C.3     1  UNL11      -0.0105
     15 C         118.0472  155.1055  147.6795 C.2     1  UNL11      -0.0556
     16 C         120.0829  152.0060  148.3602 C.3     1  UNL11       0.0150
     17 C         119.3942  151.5649  147.0906 C.2     1  UNL11       0.1401
     18 C         123.8744  154.4317  145.4319 C.3     1  UNL11      -0.0428
     19 C         122.2063  151.2086  147.2253 C.2     1  UNL11      -0.0768
     20 C         120.0281  150.7481  146.2164 C.2     1  UNL11       0.1570
     21 C         121.4480  150.4898  146.3791 C.2     1  UNL11      -0.0203
     22 C         115.2372  153.6821  145.8262 C.3     1  UNL11       0.0374
     23 C         118.2134  149.7589  145.0998 C.3     1  UNL11       0.0789
     24 H         122.3130  153.1169  145.4764 H       1  UNL11       0.2033
     25 H         120.3562  153.0212  145.7598 H       1  UNL11       0.0347
     26 H         120.2741  155.9153  146.0709 H       1  UNL11       0.0402
     27 H         122.2592  155.5801  147.0686 H       1  UNL11       0.0857
     28 H         117.8718  153.0063  144.9372 H       1  UNL11       0.0765
     29 H         119.5775  155.1152  143.8402 H       1  UNL11       0.0321
     30 H         120.0349  153.4413  143.5474 H       1  UNL11       0.0321
     31 H         121.7794  154.1966  148.9483 H       1  UNL11       0.0326
     32 H         123.1964  153.6448  148.1253 H       1  UNL11       0.0326
     33 H         122.1922  154.2685  143.3816 H       1  UNL11       0.0814
     34 H         121.7997  155.7691  144.2654 H       1  UNL11       0.0814
     35 H         117.2422  155.2879  145.7300 H       1  UNL11       0.0677
     36 H         119.7896  155.7569  148.6541 H       1  UNL11       0.0575
     37 H         122.0228  151.9033  149.1751 H       1  UNL11       0.0349
     38 H         117.3973  155.4143  148.4959 H       1  UNL11       0.0596
     39 H         119.6224  152.8964  148.7915 H       1  UNL11       0.0350
     40 H         119.9070  151.2142  149.1029 H       1  UNL11       0.0350
     41 H         124.0203  155.5143  145.4667 H       1  UNL11       0.0778
     42 H         124.2495  154.0177  144.4922 H       1  UNL11       0.0778
     43 H         124.3707  153.9392  146.2700 H       1  UNL11       0.0778
     44 H         123.2696  150.9909  147.3045 H       1  UNL11       0.0576
     45 H         121.8892  149.7250  145.7436 H       1  UNL11       0.0652
     46 H         114.2632  153.4243  146.2510 H       1  UNL11       0.0524
     47 H         115.6078  152.8153  145.2727 H       1  UNL11       0.0524
     48 H         115.1074  154.5345  145.1527 H       1  UNL11       0.0524
     49 H         118.0541  149.1340  144.2158 H       1  UNL11       0.0660
     50 H         117.4648  150.5550  145.0796 H       1  UNL11       0.0660
     51 H         118.0865  149.1275  145.9862 H       1  UNL11       0.0660
@<TRIPOS>UNITY_ATOM_ATTR
4 1
charge 1
@<TRIPOS>BOND
     1     1     8    1
     2     1    17    1
     3     2    12    1
     4     2    22    1
     5     3    20    1
     6     3    23    1
     7     4     7    1
     8     4    11    1
     9     4    18    1
    10     5     6    1
    11     5     8    1
    12     5     9    1
    13     6     7    1
    14     6    13    1
    15     7    10    1
    16     8    12    1
    17     9    11    1
    18    10    14    1
    19    12    15    1
    20    13    15    2
    21    14    16    1
    22    14    19    1
    23    16    17    1
    24    17    20    2
    25    19    21    2
    26    20    21    1
    27     4    24    1
    28     5    25    1
    29     6    26    1
    30     7    27    1
    31     8    28    1
    32     9    29    1
    33     9    30    1
    34    10    31    1
    35    10    32    1
    36    11    33    1
    37    11    34    1
    38    12    35    1
    39    13    36    1
    40    14    37    1
    41    15    38    1
    42    16    39    1
    43    16    40    1
    44    18    41    1
    45    18    42    1
    46    18    43    1
    47    19    44    1
    48    21    45    1
    49    22    46    1
    50    22    47    1
    51    22    48    1
    52    23    49    1
    53    23    50    1
    54    23    51    1
@<TRIPOS>MOLECULE
129839560
 53 56 0 0 0
SMALL
GASTEIGER

@<TRIPOS>ATOM
      1 S         124.2694  153.3869  145.7433 S.O2    1  UNL11       0.1054
      2 O         120.6990  153.8474  146.9417 O.2     1  UNL11      -0.4818
      3 O         122.6427  151.9541  147.1602 O.3     1  UNL11      -0.1992
      4 O         123.5819  151.9231  146.0346 O.3     1  UNL11      -0.0719
      5 O         119.9801  156.1807  145.6368 O.2     1  UNL11      -0.4915
      6 O         123.4147  154.1193  144.8293 O.2     1  UNL11      -0.1453
      7 O         124.7580  153.9561  146.9805 O.2     1  UNL11      -0.1453
      8 N         116.4459  151.9659  145.3516 N.4     1  UNL11       0.2359
      9 C         119.1195  152.2220  145.6755 C.3     1  UNL11       0.0151
     10 C         118.4723  151.1602  146.6148 C.3     1  UNL11       0.0270
     11 C         116.9542  151.5106  146.7760 C.3     1  UNL11      -0.0103
     12 C         120.5728  152.6791  146.0295 C.3     1  UNL11       0.1367
     13 C         118.7741  151.7860  144.2530 C.3     1  UNL11      -0.0055
     14 C         117.2689  151.4078  144.1664 C.3     1  UNL11      -0.0315
     15 C         121.3798  151.5157  146.6571 C.3     1  UNL11       0.1510
     16 C         116.5598  152.5693  147.8875 C.3     1  UNL11       0.0162
     17 C         119.2848  150.7591  147.8105 C.2     1  UNL11      -0.0766
     18 C         120.6225  150.8894  147.8066 C.2     1  UNL11      -0.0524
     19 C         114.9794  151.6899  145.1563 C.3     1  UNL11      -0.0428
     20 C         117.3140  153.8816  147.7877 C.3     1  UNL11      -0.0384
     21 C         119.5279  154.5026  147.2404 C.3     1  UNL11       0.1627
     22 C         118.6679  153.8486  148.1096 C.3     1  UNL11      -0.0129
     23 C         116.8171  154.9715  147.0624 C.3     1  UNL11      -0.0547
     24 C         119.0823  155.5836  146.4754 C.3     1  UNL11       0.1615
     25 C         117.7125  155.8682  146.4620 C.3     1  UNL11      -0.0160
     26 C         119.8238  157.5906  145.5070 C.3     1  UNL11       0.0790
     27 C         125.6604  152.7835  144.8214 C.3     1  UNL11       0.0841
     28 H         116.5543  152.9900  145.3115 H       1  UNL11       0.2034
     29 H         118.5397  153.1350  145.6957 H       1  UNL11       0.0347
     30 H         118.4637  150.2040  146.0640 H       1  UNL11       0.0402
     31 H         116.4113  150.5811  146.9917 H       1  UNL11       0.0860
     32 H         121.0683  153.0057  145.1094 H       1  UNL11       0.0767
     33 H         119.3895  150.9377  143.9322 H       1  UNL11       0.0321
     34 H         118.9824  152.6059  143.5545 H       1  UNL11       0.0321
     35 H         116.8289  151.8133  143.2493 H       1  UNL11       0.0814
     36 H         117.1315  150.3208  144.1771 H       1  UNL11       0.0814
     37 H         121.5473  150.7264  145.9121 H       1  UNL11       0.0711
     38 H         116.7556  152.1292  148.8738 H       1  UNL11       0.0368
     39 H         115.4821  152.7649  147.8587 H       1  UNL11       0.0368
     40 H         118.8004  150.2700  148.6535 H       1  UNL11       0.0575
     41 H         121.2079  150.5301  148.6513 H       1  UNL11       0.0597
     42 H         114.8242  150.6083  145.1799 H       1  UNL11       0.0778
     43 H         114.6825  152.1064  144.1903 H       1  UNL11       0.0778
     44 H         114.4236  152.1842  145.9552 H       1  UNL11       0.0778
     45 H         119.0733  153.0753  148.7534 H       1  UNL11       0.0658
     46 H         115.7509  155.0875  146.8803 H       1  UNL11       0.0621
     47 H         117.3177  156.6835  145.8624 H       1  UNL11       0.0655
     48 H         120.7578  157.9950  145.1053 H       1  UNL11       0.0660
     49 H         119.6353  158.0713  146.4733 H       1  UNL11       0.0660
     50 H         119.0256  157.8233  144.7952 H       1  UNL11       0.0660
     51 H         125.2958  152.2861  143.9205 H       1  UNL11       0.0490
     52 H         126.2277  152.0908  145.4454 H       1  UNL11       0.0490
     53 H         126.2835  153.6379  144.5490 H       1  UNL11       0.0490
@<TRIPOS>UNITY_ATOM_ATTR
8 1
charge 1
@<TRIPOS>BOND
     1     1     4    1
     2     1     6    2
     3     1     7    2
     4     1    27    1
     5     2    12    1
     6     2    21    1
     7     3     4    1
     8     3    15    1
     9     5    24    1
    10     5    26    1
    11     8    11    1
    12     8    14    1
    13     8    19    1
    14     9    10    1
    15     9    12    1
    16     9    13    1
    17    10    11    1
    18    10    17    1
    19    11    16    1
    20    12    15    1
    21    13    14    1
    22    15    18    1
    23    16    20    1
    24    17    18    2
    25    20    22   ar
    26    20    23   ar
    27    21    22   ar
    28    21    24   ar
    29    23    25   ar
    30    24    25   ar
    31     8    28    1
    32     9    29    1
    33    10    30    1
    34    11    31    1
    35    12    32    1
    36    13    33    1
    37    13    34    1
    38    14    35    1
    39    14    36    1
    40    15    37    1
    41    16    38    1
    42    16    39    1
    43    17    40    1
    44    18    41    1
    45    19    42    1
    46    19    43    1
    47    19    44    1
    48    22    45    1
    49    23    46    1
    50    25    47    1
    51    26    48    1
    52    26    49    1
    53    26    50    1
    54    27    51    1
    55    27    52    1
    56    27    53    1
@<TRIPOS>MOLECULE
6426111
 52 56 0 0 0
SMALL
GASTEIGER

@<TRIPOS>ATOM
      1 F         115.1700  153.6399  148.0090 F       1  UNL11      -0.1833
      2 F         114.4339  151.8366  147.0331 F       1  UNL11      -0.1833
      3 F         115.3753  152.8130  144.5423 F       1  UNL11      -0.1645
      4 F         114.0145  154.1867  145.5434 F       1  UNL11      -0.1645
      5 F         116.1549  154.5828  145.5354 F       1  UNL11      -0.1645
      6 O         120.1858  151.6883  145.5700 O.2     1  UNL11      -0.4799
      7 O         117.6674  153.1476  147.4644 O.3     1  UNL11      -0.4490
      8 O         121.7638  149.3399  145.6496 O.2     1  UNL11      -0.4914
      9 O         117.1144  151.1956  146.4131 O.2     1  UNL11      -0.2437
     10 N         122.6968  156.1957  145.7285 N.4     1  UNL11       0.2359
     11 C         120.9234  153.9188  146.0685 C.3     1  UNL11       0.0564
     12 C         121.0031  155.0204  147.1312 C.3     1  UNL11       0.0340
     13 C         122.4720  155.5479  147.1169 C.3     1  UNL11      -0.0097
     14 C         119.7009  152.9768  146.0906 C.3     1  UNL11       0.1512
     15 C         121.1615  154.5320  144.6704 C.3     1  UNL11       0.0015
     16 C         121.9684  152.8869  146.3266 C.3     1  UNL11       0.0121
     17 C         123.5376  154.4543  147.4454 C.3     1  UNL11       0.0165
     18 C         122.5010  155.2574  144.5575 C.3     1  UNL11      -0.0309
     19 C         123.2094  153.0945  146.8950 C.3     1  UNL11      -0.0345
     20 C         119.0565  152.7428  147.4927 C.3     1  UNL11       0.1589
     21 C         120.5160  154.5666  148.4783 C.2     1  UNL11      -0.0751
     22 C         121.5034  151.6388  145.9635 C.3     1  UNL11       0.1666
     23 C         119.6499  153.5524  148.6199 C.2     1  UNL11      -0.0438
     24 C         123.9877  156.9647  145.6153 C.3     1  UNL11      -0.0428
     25 C         124.0382  151.9797  147.0126 C.3     1  UNL11      -0.0544
     26 C         122.3079  150.5197  146.0560 C.3     1  UNL11       0.1618
     27 C         123.5967  150.7073  146.5781 C.3     1  UNL11      -0.0160
     28 C         116.7838  152.2659  146.9051 C.2     1  UNL11       0.3876
     29 C         115.3786  152.8164  146.9351 C.3     1  UNL11       0.4353
     30 C         122.5592  148.1708  145.7959 C.3     1  UNL11       0.0790
     31 C         115.2279  153.5913  145.6400 C.3     1  UNL11       0.4654
     32 H         121.9652  156.9146  145.6377 H       1  UNL11       0.2034
     33 H         120.3397  155.8501  146.8458 H       1  UNL11       0.0408
     34 H         122.5760  156.3754  147.8298 H       1  UNL11       0.0860
     35 H         118.9373  153.3301  145.3864 H       1  UNL11       0.0783
     36 H         120.3520  155.2414  144.4518 H       1  UNL11       0.0327
     37 H         121.1154  153.7673  143.8841 H       1  UNL11       0.0327
     38 H         123.5801  154.3542  148.5381 H       1  UNL11       0.0368
     39 H         124.5364  154.7560  147.1176 H       1  UNL11       0.0368
     40 H         123.3510  154.5685  144.5303 H       1  UNL11       0.0815
     41 H         122.5241  155.8687  143.6487 H       1  UNL11       0.0815
     42 H         119.1187  151.6847  147.7793 H       1  UNL11       0.0817
     43 H         120.8328  155.1104  149.3672 H       1  UNL11       0.0575
     44 H         119.3063  153.2867  149.6196 H       1  UNL11       0.0607
     45 H         124.8213  156.2622  145.5540 H       1  UNL11       0.0778
     46 H         124.0769  157.6134  146.4900 H       1  UNL11       0.0778
     47 H         123.9338  157.5712  144.7070 H       1  UNL11       0.0778
     48 H         125.0268  152.0653  147.4610 H       1  UNL11       0.0622
     49 H         124.2817  149.8710  146.6925 H       1  UNL11       0.0655
     50 H         121.9712  147.3188  145.4415 H       1  UNL11       0.0660
     51 H         122.8073  147.9912  146.8472 H       1  UNL11       0.0660
     52 H         123.4637  148.2309  145.1817 H       1  UNL11       0.0660
@<TRIPOS>UNITY_ATOM_ATTR
10 1
charge 1
@<TRIPOS>BOND
     1     1    29    1
     2     2    29    1
     3     3    31    1
     4     4    31    1
     5     5    31    1
     6     6    14    1
     7     6    22    1
     8     7    20    1
     9     7    28    1
    10     8    26    1
    11     8    30    1
    12     9    28    2
    13    10    13    1
    14    10    18    1
    15    10    24    1
    16    11    12    1
    17    11    14    1
    18    11    15    1
    19    11    16    1
    20    12    13    1
    21    12    21    1
    22    13    17    1
    23    14    20    1
    24    15    18    1
    25    16    19   ar
    26    16    22   ar
    27    17    19    1
    28    19    25   ar
    29    20    23    1
    30    21    23    2
    31    22    26   ar
    32    25    27   ar
    33    26    27   ar
    34    28    29    1
    35    29    31    1
    36    10    32    1
    37    12    33    1
    38    13    34    1
    39    14    35    1
    40    15    36    1
    41    15    37    1
    42    17    38    1
    43    17    39    1
    44    18    40    1
    45    18    41    1
    46    20    42    1
    47    21    43    1
    48    23    44    1
    49    24    45    1
    50    24    46    1
    51    24    47    1
    52    25    48    1
    53    27    49    1
    54    30    50    1
    55    30    51    1
    56    30    52    1
@<TRIPOS>MOLECULE
71314975
 50 54 0 0 0
SMALL
GASTEIGER

@<TRIPOS>ATOM
      1 S         116.1331  155.0414  146.6455 S.O2    1  UNL11       0.0799
      2 O         118.6205  152.8771  145.4700 O.2     1  UNL11      -0.4810
      3 O         117.3764  154.2810  147.3693 O.3     1  UNL11      -0.2275
      4 O         117.7924  150.2224  145.9190 O.2     1  UNL11      -0.4914
      5 O         116.4896  155.3026  145.2662 O.2     1  UNL11      -0.1475
      6 O         115.7042  156.1081  147.5240 O.2     1  UNL11      -0.1475
      7 N         123.8502  154.4024  146.0962 N.4     1  UNL11       0.2359
      8 C         120.7920  153.8506  145.9106 C.3     1  UNL11       0.0554
      9 C         121.5898  154.4639  147.0415 C.3     1  UNL11       0.0339
     10 C         122.8820  153.6003  146.8566 C.3     1  UNL11      -0.0097
     11 C         119.2835  154.1403  145.8145 C.3     1  UNL11       0.1427
     12 C         121.6209  154.1518  144.5851 C.3     1  UNL11       0.0015
     13 C         120.6742  152.3670  146.3186 C.3     1  UNL11       0.0120
     14 C         122.8878  152.2873  147.6272 C.3     1  UNL11       0.0165
     15 C         123.0721  154.8373  144.7731 C.3     1  UNL11      -0.0309
     16 C         118.6789  154.7769  147.1088 C.3     1  UNL11       0.1431
     17 C         121.5817  151.6131  147.1185 C.3     1  UNL11      -0.0345
     18 C         120.8489  154.4783  148.3500 C.2     1  UNL11      -0.0760
     19 C         119.4213  151.8972  145.9986 C.3     1  UNL11       0.1666
     20 C         119.5108  154.6062  148.3635 C.2     1  UNL11      -0.0532
     21 C         121.2163  150.3112  147.4417 C.3     1  UNL11      -0.0544
     22 C         125.1627  153.7341  145.8127 C.3     1  UNL11      -0.0428
     23 C         119.0471  150.5986  146.3021 C.3     1  UNL11       0.1618
     24 C         119.9670  149.8049  147.0140 C.3     1  UNL11      -0.0160
     25 C         114.9620  153.7077  146.7183 C.3     1  UNL11       0.0817
     26 C         117.4382  148.8591  146.1148 C.3     1  UNL11       0.0790
     27 H         124.0660  155.2588  146.6261 H       1  UNL11       0.2034
     28 H         121.7982  155.5251  146.8445 H       1  UNL11       0.0408
     29 H         122.8132  152.9752  145.9577 H       1  UNL11       0.0860
     30 H         119.0748  154.8215  144.9816 H       1  UNL11       0.0773
     31 H         121.0508  154.8275  143.9362 H       1  UNL11       0.0327
     32 H         121.7531  153.2230  144.0142 H       1  UNL11       0.0327
     33 H         122.8433  152.4408  148.7089 H       1  UNL11       0.0368
     34 H         123.7523  151.6604  147.3824 H       1  UNL11       0.0368
     35 H         123.7183  154.6108  143.9193 H       1  UNL11       0.0815
     36 H         122.9606  155.9234  144.8599 H       1  UNL11       0.0815
     37 H         118.6293  155.8655  146.9601 H       1  UNL11       0.0702
     38 H         121.3937  154.4310  149.2900 H       1  UNL11       0.0575
     39 H         118.9824  154.6578  149.3144 H       1  UNL11       0.0596
     40 H         121.8682  149.6765  148.0385 H       1  UNL11       0.0622
     41 H         124.9847  152.8412  145.2078 H       1  UNL11       0.0778
     42 H         125.6205  153.4768  146.7711 H       1  UNL11       0.0778
     43 H         125.7902  154.4501  145.2762 H       1  UNL11       0.0778
     44 H         119.7207  148.7842  147.2961 H       1  UNL11       0.0655
     45 H         115.3586  152.8582  146.1597 H       1  UNL11       0.0489
     46 H         114.0295  154.0525  146.2667 H       1  UNL11       0.0489
     47 H         114.7949  153.4440  147.7643 H       1  UNL11       0.0489
     48 H         116.4403  148.7084  145.6921 H       1  UNL11       0.0660
     49 H         117.3889  148.6161  147.1812 H       1  UNL11       0.0660
     50 H         118.1276  148.1903  145.5885 H       1  UNL11       0.0660
@<TRIPOS>UNITY_ATOM_ATTR
7 1
charge 1
@<TRIPOS>BOND
     1     1     3    1
     2     1     5    2
     3     1     6    2
     4     1    25    1
     5     2    11    1
     6     2    19    1
     7     3    16    1
     8     4    23    1
     9     4    26    1
    10     7    10    1
    11     7    15    1
    12     7    22    1
    13     8     9    1
    14     8    11    1
    15     8    12    1
    16     8    13    1
    17     9    10    1
    18     9    18    1
    19    10    14    1
    20    11    16    1
    21    12    15    1
    22    13    17   ar
    23    13    19   ar
    24    14    17    1
    25    16    20    1
    26    17    21   ar
    27    18    20    2
    28    19    23   ar
    29    21    24   ar
    30    23    24   ar
    31     7    27    1
    32     9    28    1
    33    10    29    1
    34    11    30    1
    35    12    31    1
    36    12    32    1
    37    14    33    1
    38    14    34    1
    39    15    35    1
    40    15    36    1
    41    16    37    1
    42    18    38    1
    43    20    39    1
    44    21    40    1
    45    22    41    1
    46    22    42    1
    47    22    43    1
    48    24    44    1
    49    25    45    1
    50    25    46    1
    51    25    47    1
    52    26    48    1
    53    26    49    1
    54    26    50    1
@<TRIPOS>MOLECULE
129632646
 48 53 0 0 0
SMALL
GASTEIGER

@<TRIPOS>ATOM
      1 P         117.5022  152.1775  147.7707 P.3     1  UNL11       0.5056
      2 O         119.0713  152.7303  147.5467 O.3     1  UNL11      -0.2710
      3 O         116.8488  153.6214  147.4986 O.3     1  UNL11      -0.2733
      4 O         120.5474  151.6576  144.8168 O.2     1  UNL11      -0.4791
      5 O         116.9445  152.2049  145.1061 O.3     1  UNL11      -0.2137
      6 O         117.0162  151.3869  146.4024 O.3     1  UNL11      -0.1252
      7 O         117.2159  151.5832  149.1035 O.2     1  UNL11      -0.2247
      8 O         121.4047  150.3384  147.1227 O.2     1  UNL11      -0.4915
      9 N         119.8057  156.1037  147.1758 N.4     1  UNL11       0.2379
     10 C         118.9949  153.3226  146.2524 C.3     1  UNL11       0.1630
     11 C         119.7469  154.3958  145.4712 C.3     1  UNL11       0.0564
     12 C         117.7982  154.3099  146.6929 C.3     1  UNL11       0.1433
     13 C         120.6941  155.0322  146.5073 C.3     1  UNL11      -0.0077
     14 C         119.2550  151.9461  145.4543 C.3     1  UNL11       0.1656
     15 C         118.4173  155.4717  147.6264 C.3     1  UNL11      -0.0014
     16 C         118.1943  152.0137  144.4012 C.3     1  UNL11       0.1520
     17 C         119.5095  154.1717  143.9655 C.2     1  UNL11      -0.0740
     18 C         122.1083  155.4063  145.9963 C.3     1  UNL11       0.0163
     19 C         118.6344  153.2159  143.5354 C.2     1  UNL11      -0.0523
     20 C         120.4638  156.7908  148.3434 C.3     1  UNL11      -0.0427
     21 C         122.8286  154.0339  145.9460 C.3     1  UNL11      -0.0383
     22 C         121.6630  152.0330  145.5186 C.3     1  UNL11       0.1628
     23 C         122.3077  153.1543  145.0036 C.3     1  UNL11      -0.0129
     24 C         123.3236  153.5006  147.1465 C.3     1  UNL11      -0.0547
     25 C         122.0383  151.4880  146.7479 C.3     1  UNL11       0.1615
     26 C         122.9680  152.1945  147.5171 C.3     1  UNL11      -0.0160
     27 C         121.9110  149.6638  148.2690 C.3     1  UNL11       0.0790
     28 H         119.5992  156.8442  146.4892 H       1  UNL11       0.2035
     29 H         119.1246  155.2957  145.3123 H       1  UNL11       0.0429
     30 H         117.2544  154.7471  145.8471 H       1  UNL11       0.0687
     31 H         120.8438  154.3483  147.3512 H       1  UNL11       0.0861
     32 H         119.1181  151.0553  146.0783 H       1  UNL11       0.0794
     33 H         117.7149  156.3090  147.6991 H       1  UNL11       0.0841
     34 H         118.5814  155.0790  148.6374 H       1  UNL11       0.0841
     35 H         118.1494  151.1066  143.7905 H       1  UNL11       0.0711
     36 H         119.8807  154.9112  143.2560 H       1  UNL11       0.0575
     37 H         122.6462  156.0694  146.6795 H       1  UNL11       0.0368
     38 H         122.0810  155.8709  145.0053 H       1  UNL11       0.0368
     39 H         118.3636  153.1613  142.4818 H       1  UNL11       0.0597
     40 H         120.7807  156.0327  149.0639 H       1  UNL11       0.0778
     41 H         119.7327  157.4721  148.7865 H       1  UNL11       0.0778
     42 H         121.3147  157.3616  147.9665 H       1  UNL11       0.0778
     43 H         122.0202  153.5141  144.0179 H       1  UNL11       0.0658
     44 H         123.8341  154.1311  147.8725 H       1  UNL11       0.0621
     45 H         123.3137  151.8214  148.4769 H       1  UNL11       0.0655
     46 H         121.3694  148.7181  148.3664 H       1  UNL11       0.0660
     47 H         121.7278  150.2480  149.1766 H       1  UNL11       0.0660
     48 H         122.9751  149.4308  148.1563 H       1  UNL11       0.0660
@<TRIPOS>UNITY_ATOM_ATTR
9 1
charge 1
@<TRIPOS>BOND
     1     1     2    1
     2     1     3    1
     3     1     6    1
     4     1     7    2
     5     2    10    1
     6     3    12    1
     7     4    14    1
     8     4    22    1
     9     5     6    1
    10     5    16    1
    11     8    25    1
    12     8    27    1
    13     9    13    1
    14     9    15    1
    15     9    20    1
    16    10    11    1
    17    10    12    1
    18    10    14    1
    19    11    13    1
    20    11    17    1
    21    12    15    1
    22    13    18    1
    23    14    16    1
    24    16    19    1
    25    17    19    2
    26    18    21    1
    27    21    23   ar
    28    21    24   ar
    29    22    23   ar
    30    22    25   ar
    31    24    26   ar
    32    25    26   ar
    33     9    28    1
    34    11    29    1
    35    12    30    1
    36    13    31    1
    37    14    32    1
    38    15    33    1
    39    15    34    1
    40    16    35    1
    41    17    36    1
    42    18    37    1
    43    18    38    1
    44    19    39    1
    45    20    40    1
    46    20    41    1
    47    20    42    1
    48    23    43    1
    49    24    44    1
    50    26    45    1
    51    27    46    1
    52    27    47    1
    53    27    48    1
@<TRIPOS>MOLECULE
129696134
 50 53 0 0 0
SMALL
GASTEIGER

@<TRIPOS>ATOM
      1 P         123.4707  152.6245  144.7979 P.3     1  UNL11       0.0261
      2 O         120.4422  154.2331  147.5018 O.2     1  UNL11      -0.4818
      3 O         122.7021  152.4623  147.3700 O.3     1  UNL11      -0.2210
      4 O         123.6489  151.9840  146.3291 O.3     1  UNL11      -0.2227
      5 O         119.3947  156.8488  146.3197 O.2     1  UNL11      -0.4915
      6 O         124.7264  152.1894  144.0633 O.co2   1  UNL11      -0.5749
      7 O         122.1936  151.9769  144.2530 O.co2   1  UNL11      -0.5749
      8 O         123.3199  154.1256  145.0033 O.2     1  UNL11      -0.6358
      9 N         116.7022  152.0565  145.2272 N.4     1  UNL11       0.2359
     10 C         119.2373  152.5985  145.8979 C.3     1  UNL11       0.0151
     11 C         118.6490  151.3972  146.7001 C.3     1  UNL11       0.0270
     12 C         117.0949  151.5464  146.6715 C.3     1  UNL11      -0.0103
     13 C         120.5696  153.1757  146.4348 C.3     1  UNL11       0.1366
     14 C         119.1338  152.2132  144.4263 C.3     1  UNL11      -0.0055
     15 C         117.7280  151.6719  144.1255 C.3     1  UNL11      -0.0315
     16 C         121.4189  152.0063  146.9715 C.3     1  UNL11       0.1490
     17 C         116.4316  152.4523  147.7907 C.3     1  UNL11       0.0162
     18 C         119.3616  151.0462  147.9867 C.2     1  UNL11      -0.0766
     19 C         120.6730  151.3334  148.1161 C.2     1  UNL11      -0.0525
     20 C         115.3210  151.6671  144.8182 C.3     1  UNL11      -0.0428
     21 C         117.0101  153.8496  147.8935 C.3     1  UNL11      -0.0384
     22 C         119.1883  154.7687  147.6596 C.3     1  UNL11       0.1627
     23 C         118.3130  153.9533  148.3702 C.3     1  UNL11      -0.0129
     24 C         116.4593  154.9443  147.2268 C.3     1  UNL11      -0.0547
     25 C         118.6921  155.8675  146.9573 C.3     1  UNL11       0.1615
     26 C         117.2988  155.9983  146.8460 C.3     1  UNL11      -0.0160
     27 C         120.5896  156.4372  145.6518 C.3     1  UNL11       0.0790
     28 H         116.7384  153.0857  145.2614 H       1  UNL11       0.2034
     29 H         118.5547  153.4382  145.9037 H       1  UNL11       0.0347
     30 H         118.8407  150.4830  146.1128 H       1  UNL11       0.0402
     31 H         116.6533  150.5443  146.7482 H       1  UNL11       0.0860
     32 H         121.0759  153.6940  145.6271 H       1  UNL11       0.0767
     33 H         119.8590  151.4425  144.1531 H       1  UNL11       0.0321
     34 H         119.3401  153.0867  143.7961 H       1  UNL11       0.0321
     35 H         117.3546  152.0850  143.1825 H       1  UNL11       0.0814
     36 H         117.7186  150.5782  144.0639 H       1  UNL11       0.0814
     37 H         121.5255  151.1996  146.2389 H       1  UNL11       0.0710
     38 H         116.5564  151.9533  148.7606 H       1  UNL11       0.0368
     39 H         115.3497  152.5175  147.6306 H       1  UNL11       0.0368
     40 H         118.8503  150.4981  148.7709 H       1  UNL11       0.0575
     41 H         121.2499  151.0506  148.9896 H       1  UNL11       0.0597
     42 H         115.2716  150.5775  144.7480 H       1  UNL11       0.0778
     43 H         115.1082  152.1288  143.8502 H       1  UNL11       0.0778
     44 H         114.6165  152.0431  145.5621 H       1  UNL11       0.0778
     45 H         118.7431  153.1797  148.9968 H       1  UNL11       0.0658
     46 H         115.4154  154.9625  146.9286 H       1  UNL11       0.0621
     47 H         116.8916  156.8590  146.3204 H       1  UNL11       0.0655
     48 H         121.3833  156.1833  146.3576 H       1  UNL11       0.0660
     49 H         120.9371  157.2882  145.0576 H       1  UNL11       0.0660
     50 H         120.3728  155.6280  144.9488 H       1  UNL11       0.0660
@<TRIPOS>UNITY_ATOM_ATTR
6 1
charge -1
7 1
charge -1
9 1
charge 1
@<TRIPOS>BOND
     1     1     4    1
     2     1     6    1
     3     1     7    1
     4     1     8    2
     5     2    13    1
     6     2    22    1
     7     3     4    1
     8     3    16    1
     9     5    25    1
    10     5    27    1
    11     9    12    1
    12     9    15    1
    13     9    20    1
    14    10    11    1
    15    10    13    1
    16    10    14    1
    17    11    12    1
    18    11    18    1
    19    12    17    1
    20    13    16    1
    21    14    15    1
    22    16    19    1
    23    17    21    1
    24    18    19    2
    25    21    23   ar
    26    21    24   ar
    27    22    23   ar
    28    22    25   ar
    29    24    26   ar
    30    25    26   ar
    31     9    28    1
    32    10    29    1
    33    11    30    1
    34    12    31    1
    35    13    32    1
    36    14    33    1
    37    14    34    1
    38    15    35    1
    39    15    36    1
    40    16    37    1
    41    17    38    1
    42    17    39    1
    43    18    40    1
    44    19    41    1
    45    20    42    1
    46    20    43    1
    47    20    44    1
    48    23    45    1
    49    24    46    1
    50    26    47    1
    51    27    48    1
    52    27    49    1
    53    27    50    1
@<TRIPOS>MOLECULE
129733751
 54 58 0 0 0
SMALL
GASTEIGER

@<TRIPOS>ATOM
      1 O         119.8121  152.8673  145.1631 O.3     1  UNL11      -0.4501
      2 O         119.9331  152.1765  148.2943 O.2     1  UNL11      -0.4781
      3 O         122.5803  154.5452  147.4247 O.3     1  UNL11      -0.1717
      4 O         123.7845  153.6690  147.4726 O.3     1  UNL11      -0.2916
      5 O         120.5658  152.1353  143.1530 O.2     1  UNL11      -0.2456
      6 O         119.6241  150.0387  146.5549 O.2     1  UNL11      -0.4915
      7 O         124.7817  151.9949  146.2767 O.2     1  UNL11      -0.2425
      8 N         117.7845  155.5628  145.0878 N.4     1  UNL11       0.2361
      9 C         120.1002  153.8604  146.2091 C.3     1  UNL11       0.1692
     10 C         118.9785  154.6519  146.9634 C.3     1  UNL11       0.0642
     11 C         117.6943  154.4459  146.1335 C.3     1  UNL11      -0.0068
     12 C         120.7771  152.9918  147.3824 C.3     1  UNL11       0.1742
     13 C         120.4678  155.0791  145.2678 C.3     1  UNL11       0.0319
     14 C         119.1955  155.5036  144.3629 C.3     1  UNL11      -0.0280
     15 C         121.5892  153.9231  148.2650 C.3     1  UNL11       0.1639
     16 C         119.3363  155.0754  148.3910 C.2     1  UNL11      -0.0730
     17 C         116.4019  154.1860  146.9481 C.3     1  UNL11       0.0163
     18 C         120.5901  154.8985  148.8734 C.2     1  UNL11      -0.0512
     19 C         116.6743  155.5282  144.0723 C.3     1  UNL11      -0.0428
     20 C         116.5843  152.7125  147.4158 C.3     1  UNL11      -0.0383
     21 C         118.7057  151.7682  147.8497 C.3     1  UNL11       0.1629
     22 C         117.6281  152.5179  148.3156 C.3     1  UNL11      -0.0129
     23 C         120.8085  152.3972  144.3205 C.2     1  UNL11       0.3328
     24 C         116.3073  151.6842  146.5015 C.3     1  UNL11      -0.0547
     25 C         118.5216  150.7752  146.8875 C.3     1  UNL11       0.1615
     26 C         117.2631  150.6779  146.2836 C.3     1  UNL11      -0.0160
     27 C         122.1445  152.1602  144.9189 C.2     1  UNL11       0.0294
     28 C         123.0165  153.1393  145.2278 C.2     1  UNL11       0.0322
     29 C         123.9553  152.8942  146.3391 C.2     1  UNL11       0.3668
     30 C         119.4029  148.8842  145.7511 C.3     1  UNL11       0.0790
     31 H         117.7132  156.4752  145.5603 H       1  UNL11       0.2034
     32 H         119.1089  155.7295  146.7548 H       1  UNL11       0.0439
     33 H         117.7785  153.5749  145.4799 H       1  UNL11       0.0861
     34 H         121.4384  152.2218  147.0191 H       1  UNL11       0.0805
     35 H         121.2303  154.8658  144.5236 H       1  UNL11       0.0357
     36 H         120.8434  155.9478  145.8246 H       1  UNL11       0.0357
     37 H         119.3535  156.4997  143.9375 H       1  UNL11       0.0816
     38 H         119.0781  154.7806  143.5479 H       1  UNL11       0.0816
     39 H         122.0677  153.3760  149.0872 H       1  UNL11       0.0722
     40 H         118.6384  155.7025  148.9455 H       1  UNL11       0.0576
     41 H         115.4963  154.2602  146.3392 H       1  UNL11       0.0368
     42 H         116.3053  154.8594  147.8055 H       1  UNL11       0.0368
     43 H         120.8695  155.3323  149.8323 H       1  UNL11       0.0597
     44 H         116.6618  154.5443  143.5966 H       1  UNL11       0.0778
     45 H         116.8666  156.3158  143.3391 H       1  UNL11       0.0778
     46 H         115.7347  155.7306  144.5907 H       1  UNL11       0.0778
     47 H         117.7934  153.2258  149.1238 H       1  UNL11       0.0658
     48 H         115.4466  151.7411  145.8373 H       1  UNL11       0.0621
     49 H         117.0516  149.9275  145.5271 H       1  UNL11       0.0655
     50 H         122.2654  151.1485  145.3040 H       1  UNL11       0.0691
     51 H         122.9825  154.1625  144.8964 H       1  UNL11       0.0692
     52 H         120.3496  148.3400  145.6818 H       1  UNL11       0.0660
     53 H         119.1076  149.1687  144.7360 H       1  UNL11       0.0660
     54 H         118.6643  148.2161  146.2064 H       1  UNL11       0.0660
@<TRIPOS>UNITY_ATOM_ATTR
8 1
charge 1
@<TRIPOS>BOND
     1     1     9    1
     2     1    23    1
     3     2    12    1
     4     2    21    1
     5     3     4    1
     6     3    15    1
     7     4    29    1
     8     5    23    2
     9     6    25    1
    10     6    30    1
    11     7    29    2
    12     8    11    1
    13     8    14    1
    14     8    19    1
    15     9    10    1
    16     9    12    1
    17     9    13    1
    18    10    11    1
    19    10    16    1
    20    11    17    1
    21    12    15    1
    22    13    14    1
    23    15    18    1
    24    16    18    2
    25    17    20    1
    26    20    22   ar
    27    20    24   ar
    28    21    22   ar
    29    21    25   ar
    30    23    27    1
    31    24    26   ar
    32    25    26   ar
    33    27    28    2
    34    28    29    1
    35     8    31    1
    36    10    32    1
    37    11    33    1
    38    12    34    1
    39    13    35    1
    40    13    36    1
    41    14    37    1
    42    14    38    1
    43    15    39    1
    44    16    40    1
    45    17    41    1
    46    17    42    1
    47    18    43    1
    48    19    44    1
    49    19    45    1
    50    19    46    1
    51    22    47    1
    52    24    48    1
    53    26    49    1
    54    27    50    1
    55    28    51    1
    56    30    52    1
    57    30    53    1
    58    30    54    1
@<TRIPOS>MOLECULE
129814463
 53 56 0 0 0
SMALL
GASTEIGER

@<TRIPOS>ATOM
      1 O         120.6976  153.8122  146.9150 O.2     1  UNL11      -0.4818
      2 O         122.5582  151.8156  147.1983 O.3     1  UNL11      -0.1692
      3 O         123.4242  151.9600  146.0269 O.3     1  UNL11      -0.2581
      4 O         120.0930  156.1807  145.6384 O.2     1  UNL11      -0.4915
      5 O         125.2520  152.9491  145.2910 O.3     1  UNL11      -0.4353
      6 O         124.6260  153.3154  147.4696 O.2     1  UNL11      -0.2005
      7 N         116.3909  152.0617  145.3111 N.4     1  UNL11       0.2359
      8 C         119.0688  152.2207  145.6665 C.3     1  UNL11       0.0152
      9 C         118.3690  151.1905  146.6059 C.3     1  UNL11       0.0270
     10 C         116.8644  151.5995  146.7447 C.3     1  UNL11      -0.0103
     11 C         120.5351  152.6223  146.0352 C.3     1  UNL11       0.1376
     12 C         118.7241  151.7878  144.2429 C.3     1  UNL11      -0.0055
     13 C         117.2074  151.4636  144.1408 C.3     1  UNL11      -0.0315
     14 C         121.2787  151.4350  146.6987 C.3     1  UNL11       0.1605
     15 C         116.5013  152.6829  147.8433 C.3     1  UNL11       0.0162
     16 C         119.1419  150.7744  147.8227 C.2     1  UNL11      -0.0765
     17 C         120.4826  150.8591  147.8455 C.2     1  UNL11      -0.0515
     18 C         114.9178  151.8348  145.0999 C.3     1  UNL11      -0.0428
     19 C         117.3071  153.9637  147.7405 C.3     1  UNL11      -0.0384
     20 C         119.5460  154.5068  147.2070 C.3     1  UNL11       0.1627
     21 C         118.6568  153.8842  148.0707 C.3     1  UNL11      -0.0129
     22 C         116.8557  155.0704  147.0127 C.3     1  UNL11      -0.0547
     23 C         119.1466  155.6049  146.4381 C.3     1  UNL11       0.1615
     24 C         117.7871  155.9370  146.4216 C.3     1  UNL11      -0.0160
     25 C         124.4477  152.7975  146.3772 C.2     1  UNL11       0.5415
     26 C         119.8540  157.5335  145.2645 C.3     1  UNL11       0.0790
     27 C         126.3886  153.7783  145.5297 C.3     1  UNL11       0.0852
     28 H         116.5350  153.0808  145.2654 H       1  UNL11       0.2034
     29 H         118.5244  153.1556  145.6720 H       1  UNL11       0.0347
     30 H         118.3343  150.2301  146.0637 H       1  UNL11       0.0402
     31 H         116.2834  150.6938  146.9622 H       1  UNL11       0.0860
     32 H         121.0647  152.9075  145.1182 H       1  UNL11       0.0767
     33 H         119.3123  150.9159  143.9347 H       1  UNL11       0.0321
     34 H         118.9700  152.5951  143.5420 H       1  UNL11       0.0321
     35 H         116.7936  151.8772  143.2151 H       1  UNL11       0.0814
     36 H         117.0306  150.3825  144.1585 H       1  UNL11       0.0814
     37 H         121.4200  150.6274  145.9678 H       1  UNL11       0.0721
     38 H         116.6696  152.2443  148.8354 H       1  UNL11       0.0368
     39 H         115.4323  152.9197  147.8013 H       1  UNL11       0.0368
     40 H         118.6241  150.3139  148.6619 H       1  UNL11       0.0575
     41 H         121.0404  150.4921  148.7053 H       1  UNL11       0.0597
     42 H         114.7257  150.7592  145.1254 H       1  UNL11       0.0778
     43 H         114.6467  152.2574  144.1289 H       1  UNL11       0.0778
     44 H         114.3703  152.3510  145.8906 H       1  UNL11       0.0778
     45 H         119.0306  153.1019  148.7224 H       1  UNL11       0.0658
     46 H         115.7951  155.2277  146.8285 H       1  UNL11       0.0621
     47 H         117.4175  156.7736  145.8358 H       1  UNL11       0.0655
     48 H         120.7857  157.9380  144.8578 H       1  UNL11       0.0660
     49 H         119.5678  158.1476  146.1253 H       1  UNL11       0.0660
     50 H         119.0960  157.5859  144.4764 H       1  UNL11       0.0660
     51 H         126.9743  153.8237  144.6073 H       1  UNL11       0.0662
     52 H         127.0181  153.3512  146.3169 H       1  UNL11       0.0662
     53 H         126.0751  154.7939  145.7908 H       1  UNL11       0.0662
@<TRIPOS>UNITY_ATOM_ATTR
7 1
charge 1
@<TRIPOS>BOND
     1     1    11    1
     2     1    20    1
     3     2     3    1
     4     2    14    1
     5     3    25    1
     6     4    23    1
     7     4    26    1
     8     5    25    1
     9     5    27    1
    10     6    25    2
    11     7    10    1
    12     7    13    1
    13     7    18    1
    14     8     9    1
    15     8    11    1
    16     8    12    1
    17     9    10    1
    18     9    16    1
    19    10    15    1
    20    11    14    1
    21    12    13    1
    22    14    17    1
    23    15    19    1
    24    16    17    2
    25    19    21   ar
    26    19    22   ar
    27    20    21   ar
    28    20    23   ar
    29    22    24   ar
    30    23    24   ar
    31     7    28    1
    32     8    29    1
    33     9    30    1
    34    10    31    1
    35    11    32    1
    36    12    33    1
    37    12    34    1
    38    13    35    1
    39    13    36    1
    40    14    37    1
    41    15    38    1
    42    15    39    1
    43    16    40    1
    44    17    41    1
    45    18    42    1
    46    18    43    1
    47    18    44    1
    48    21    45    1
    49    22    46    1
    50    24    47    1
    51    26    48    1
    52    26    49    1
    53    26    50    1
    54    27    51    1
    55    27    52    1
    56    27    53    1
@<TRIPOS>MOLECULE
118701633
 44 48 0 0 0
SMALL
GASTEIGER

@<TRIPOS>ATOM
      1 O         118.2848  151.8748  147.1440 O.3     1  UNL11      -0.4811
      2 O         119.0321  149.2446  146.6626 O.3     1  UNL11      -0.3878
      3 O         115.9200  153.5813  146.9850 O.3     1  UNL11      -0.4914
      4 N         123.0878  154.2120  146.5825 N.4     1  UNL11       0.2386
      5 C         120.5977  152.6990  146.9600 C.3     1  UNL11       0.0697
      6 C         119.6832  151.5008  147.3195 C.3     1  UNL11       0.1400
      7 C         121.3742  152.6666  145.6677 C.2     1  UNL11      -0.0113
      8 C         122.0874  153.9870  145.4520 C.3     1  UNL11       0.0057
      9 C         121.5419  152.9980  148.1413 C.3     1  UNL11       0.0047
     10 C         119.5565  153.7352  146.7254 C.ar    1  UNL11       0.0155
     11 C         120.0452  150.2369  146.5240 C.3     1  UNL11       0.0965
     12 C         121.0858  155.2039  145.3942 C.3     1  UNL11       0.0200
     13 C         122.4355  154.2153  147.9423 C.3     1  UNL11      -0.0303
     14 C         119.7593  154.9563  146.0873 C.ar    1  UNL11      -0.0339
     15 C         118.2914  153.2276  146.9236 C.ar    1  UNL11       0.1669
     16 C         121.2571  151.6576  144.7898 C.2     1  UNL11      -0.0760
     17 C         120.3351  150.4906  145.0395 C.3     1  UNL11      -0.0046
     18 C         118.6527  155.7930  145.9215 C.ar    1  UNL11      -0.0544
     19 C         117.1820  154.0251  146.7236 C.ar    1  UNL11       0.1618
     20 C         124.2802  153.2939  146.4976 C.3     1  UNL11      -0.0425
     21 C         117.3708  155.3398  146.2837 C.ar    1  UNL11      -0.0160
     22 C         115.3926  152.8792  145.8596 C.3     1  UNL11       0.0790
     23 H         118.1687  149.7015  146.6238 H       1  UNL11       0.2100
     24 H         123.4721  155.1558  146.4452 H       1  UNL11       0.2037
     25 H         119.7562  151.2486  148.3867 H       1  UNL11       0.0771
     26 H         122.6819  153.9855  144.5306 H       1  UNL11       0.0904
     27 H         122.1774  152.1202  148.3214 H       1  UNL11       0.0330
     28 H         120.9658  153.1518  149.0635 H       1  UNL11       0.0330
     29 H         120.9581  149.8162  146.9657 H       1  UNL11       0.0634
     30 H         120.8597  155.3774  144.3332 H       1  UNL11       0.0372
     31 H         121.5448  156.1214  145.7797 H       1  UNL11       0.0372
     32 H         121.8687  155.1482  148.0264 H       1  UNL11       0.0815
     33 H         123.2314  154.2532  148.6942 H       1  UNL11       0.0815
     34 H         121.7449  151.6927  143.8175 H       1  UNL11       0.0575
     35 H         119.3992  150.6476  144.4889 H       1  UNL11       0.0334
     36 H         120.7818  149.5839  144.6128 H       1  UNL11       0.0334
     37 H         118.7515  156.7699  145.4518 H       1  UNL11       0.0622
     38 H         123.9587  152.2629  146.6615 H       1  UNL11       0.0778
     39 H         124.9956  153.6025  147.2645 H       1  UNL11       0.0778
     40 H         124.7286  153.4117  145.5077 H       1  UNL11       0.0778
     41 H         116.5073  155.9872  146.1450 H       1  UNL11       0.0655
     42 H         114.3763  152.5607  146.1098 H       1  UNL11       0.0660
     43 H         115.9814  151.9842  145.6327 H       1  UNL11       0.0660
     44 H         115.3369  153.5307  144.9804 H       1  UNL11       0.0660
@<TRIPOS>UNITY_ATOM_ATTR
4 1
charge 1
@<TRIPOS>BOND
     1     1     6    1
     2     1    15    1
     3     2    11    1
     4     3    19    1
     5     3    22    1
     6     4     8    1
     7     4    13    1
     8     4    20    1
     9     5     6    1
    10     5     7    1
    11     5     9    1
    12     5    10    1
    13     6    11    1
    14     7     8    1
    15     7    16    2
    16     8    12    1
    17     9    13    1
    18    10    14   ar
    19    10    15   ar
    20    11    17    1
    21    12    14    1
    22    14    18   ar
    23    15    19   ar
    24    16    17    1
    25    18    21   ar
    26    19    21   ar
    27     2    23    1
    28     4    24    1
    29     6    25    1
    30     8    26    1
    31     9    27    1
    32     9    28    1
    33    11    29    1
    34    12    30    1
    35    12    31    1
    36    13    32    1
    37    13    33    1
    38    16    34    1
    39    17    35    1
    40    17    36    1
    41    18    37    1
    42    20    38    1
    43    20    39    1
    44    20    40    1
    45    21    41    1
    46    22    42    1
    47    22    43    1
    48    22    44    1
@<TRIPOS>MOLECULE
12310665
 45 49 0 0 0
SMALL
GASTEIGER

@<TRIPOS>ATOM
      1 O         121.5968  152.0747  145.1645 O.3     1  UNL11      -0.4811
      2 O         117.4163  155.3265  147.6932 O.3     1  UNL11      -0.3815
      3 O         122.0785  150.8165  147.4214 O.3     1  UNL11      -0.3841
      4 O         123.4914  154.1062  145.6571 O.3     1  UNL11      -0.4914
      5 N         116.6300  153.3556  145.6632 N.4     1  UNL11       0.2378
      6 C         119.2614  152.1304  145.7339 C.3     1  UNL11       0.0555
      7 C         118.1565  151.6836  146.6982 C.3     1  UNL11       0.0364
      8 C         117.3107  152.9522  147.0114 C.3     1  UNL11       0.0169
      9 C         120.4793  151.2027  145.5533 C.3     1  UNL11       0.1402
     10 C         118.6170  152.5406  144.3881 C.3     1  UNL11       0.0015
     11 C         120.0122  153.3054  146.2647 C.ar    1  UNL11       0.0145
     12 C         118.1516  154.1073  147.6935 C.3     1  UNL11       0.1235
     13 C         117.5933  153.6663  144.5438 C.3     1  UNL11      -0.0308
     14 C         119.5288  154.2900  147.1060 C.ar    1  UNL11      -0.0062
     15 C         120.8732  150.3613  146.8115 C.3     1  UNL11       0.1110
     16 C         118.6598  150.9352  147.8959 C.2     1  UNL11      -0.0760
     17 C         121.3254  153.2555  145.8297 C.ar    1  UNL11       0.1666
     18 C         119.8597  150.3382  147.9193 C.2     1  UNL11      -0.0558
     19 C         120.4283  155.3051  147.4443 C.ar    1  UNL11      -0.0520
     20 C         115.5803  154.4309  145.8010 C.3     1  UNL11      -0.0427
     21 C         122.2271  154.2535  146.1400 C.ar    1  UNL11       0.1618
     22 C         121.7553  155.2976  146.9465 C.ar    1  UNL11      -0.0159
     23 C         124.4551  155.0708  146.0616 C.3     1  UNL11       0.0790
     24 H         117.9192  155.9755  148.2195 H       1  UNL11       0.2105
     25 H         122.6461  151.1698  146.7086 H       1  UNL11       0.2104
     26 H         116.0976  152.5270  145.3704 H       1  UNL11       0.2035
     27 H         117.5043  150.9630  146.1819 H       1  UNL11       0.0409
     28 H         116.4691  152.6950  147.6668 H       1  UNL11       0.0886
     29 H         120.2953  150.5090  144.7229 H       1  UNL11       0.0772
     30 H         118.1223  151.6645  143.9479 H       1  UNL11       0.0327
     31 H         119.3729  152.8590  143.6585 H       1  UNL11       0.0327
     32 H         118.2907  153.8172  148.7433 H       1  UNL11       0.0701
     33 H         118.0630  154.6316  144.7568 H       1  UNL11       0.0815
     34 H         117.0002  153.7668  143.6281 H       1  UNL11       0.0815
     35 H         121.0566  149.3298  146.4891 H       1  UNL11       0.0675
     36 H         118.0054  150.8166  148.7586 H       1  UNL11       0.0575
     37 H         120.1584  149.7838  148.8092 H       1  UNL11       0.0596
     38 H         120.1439  156.1080  148.1213 H       1  UNL11       0.0622
     39 H         116.0533  155.4144  145.7831 H       1  UNL11       0.0778
     40 H         115.0203  154.2585  146.7232 H       1  UNL11       0.0778
     41 H         114.9094  154.3362  144.9421 H       1  UNL11       0.0778
     42 H         122.4095  156.1126  147.2463 H       1  UNL11       0.0655
     43 H         125.4155  154.7906  145.6184 H       1  UNL11       0.0660
     44 H         124.5778  155.0742  147.1498 H       1  UNL11       0.0660
     45 H         124.1937  156.0671  145.6904 H       1  UNL11       0.0660
@<TRIPOS>UNITY_ATOM_ATTR
5 1
charge 1
@<TRIPOS>BOND
     1     1     9    1
     2     1    17    1
     3     2    12    1
     4     3    15    1
     5     4    21    1
     6     4    23    1
     7     5     8    1
     8     5    13    1
     9     5    20    1
    10     6     7    1
    11     6     9    1
    12     6    10    1
    13     6    11    1
    14     7     8    1
    15     7    16    1
    16     8    12    1
    17     9    15    1
    18    10    13    1
    19    11    14   ar
    20    11    17   ar
    21    12    14    1
    22    14    19   ar
    23    15    18    1
    24    16    18    2
    25    17    21   ar
    26    19    22   ar
    27    21    22   ar
    28     2    24    1
    29     3    25    1
    30     5    26    1
    31     7    27    1
    32     8    28    1
    33     9    29    1
    34    10    30    1
    35    10    31    1
    36    12    32    1
    37    13    33    1
    38    13    34    1
    39    15    35    1
    40    16    36    1
    41    18    37    1
    42    19    38    1
    43    20    39    1
    44    20    40    1
    45    20    41    1
    46    22    42    1
    47    23    43    1
    48    23    44    1
    49    23    45    1
@<TRIPOS>MOLECULE
10470963
 44 48 0 0 0
SMALL
GASTEIGER

@<TRIPOS>ATOM
      1 O         121.6497  152.2912  145.0974 O.2     1  UNL111     -0.4811
      2 O         115.8245  152.5000  145.7852 O.co2   1  UNL111     -0.7753
      3 O         122.2844  150.3311  146.7037 O.3     1  UNL111     -0.3841
      4 O         123.6123  154.4163  145.5807 O.2     1  UNL111     -0.4914
      5 N         116.6386  153.5738  146.0992 N.3     1  UNL111      0.2178
      6 C         119.3200  152.3866  145.7986 C.3     1  UNL111      0.0553
      7 C         118.3717  151.9391  146.9197 C.3     1  UNL111      0.0338
      8 C         117.5278  153.1960  147.3070 C.3     1  UNL111     -0.0105
      9 C         120.4827  151.4451  145.4243 C.3     1  UNL111      0.1402
     10 C         118.5101  152.8295  144.5617 C.3     1  UNL111      0.0014
     11 C         120.1459  153.5313  146.2888 C.3     1  UNL111      0.0120
     12 C         117.4809  153.9131  144.8864 C.3     1  UNL111     -0.0317
     13 C         118.4036  154.3642  147.8582 C.3     1  UNL111      0.0164
     14 C         119.7402  154.5111  147.1797 C.3     1  UNL111     -0.0345
     15 C         120.8704  150.4078  146.5206 C.3     1  UNL111      0.1110
     16 C         119.1096  151.2913  148.0681 C.2     1  UNL111     -0.0761
     17 C         121.4317  153.4497  145.7998 C.3     1  UNL111      0.1666
     18 C         120.2477  150.6075  147.8721 C.2     1  UNL111     -0.0558
     19 C         115.7223  154.7242  146.4143 C.3     1  UNL111     -0.0436
     20 C         120.6571  155.5207  147.4801 C.3     1  UNL111     -0.0544
     21 C         122.3495  154.4350  146.0952 C.3     1  UNL111      0.1618
     22 C         121.9472  155.4981  146.9132 C.3     1  UNL111     -0.0160
     23 C         124.4895  153.7118  146.4591 C.3     1  UNL111      0.0790
     24 H         122.6712  150.9873  146.0929 H       1  UNL111      0.2104
     25 H         117.7004  151.1603  146.5331 H       1  UNL111      0.0408
     26 H         116.7968  152.9197  148.0794 H       1  UNL111      0.0859
     27 H         120.2506  150.8884  144.5073 H       1  UNL111      0.0772
     28 H         117.9895  151.9547  144.1506 H       1  UNL111      0.0327
     29 H         119.1674  153.1998  143.7644 H       1  UNL111      0.0327
     30 H         117.9547  154.8798  145.0836 H       1  UNL111      0.0814
     31 H         116.7815  154.0401  144.0516 H       1  UNL111      0.0814
     32 H         118.6080  154.1514  148.9161 H       1  UNL111      0.0368
     33 H         117.8774  155.3209  147.8294 H       1  UNL111      0.0368
     34 H         120.5516  149.4163  146.1760 H       1  UNL111      0.0675
     35 H         118.6720  151.3340  149.0624 H       1  UNL111      0.0575
     36 H         120.7291  150.1113  148.7116 H       1  UNL111      0.0596
     37 H         115.2049  154.4912  147.3484 H       1  UNL111      0.0777
     38 H         115.0060  154.8056  145.5910 H       1  UNL111      0.0777
     39 H         116.3064  155.6420  146.4922 H       1  UNL111      0.0777
     40 H         120.3941  156.3204  148.1689 H       1  UNL111      0.0622
     41 H         122.6512  156.2936  147.1442 H       1  UNL111      0.0655
     42 H         125.4907  153.7306  146.0182 H       1  UNL111      0.0660
     43 H         124.1885  152.6651  146.5688 H       1  UNL111      0.0660
     44 H         124.5428  154.1971  147.4400 H       1  UNL111      0.0660
@<TRIPOS>UNITY_ATOM_ATTR
2 1
charge -1
5 1
charge 1
@<TRIPOS>BOND
     1     1     9    1
     2     1    17    1
     3     2     5    1
     4     3    15    1
     5     4    21    1
     6     4    23    1
     7     5     8    1
     8     5    12    1
     9     5    19    1
    10     6     7    1
    11     6     9    1
    12     6    10    1
    13     6    11    1
    14     7     8    1
    15     7    16    1
    16     8    13    1
    17     9    15    1
    18    10    12    1
    19    11    14   ar
    20    11    17   ar
    21    13    14    1
    22    14    20   ar
    23    15    18    1
    24    16    18    2
    25    17    21   ar
    26    20    22   ar
    27    21    22   ar
    28     3    24    1
    29     7    25    1
    30     8    26    1
    31     9    27    1
    32    10    28    1
    33    10    29    1
    34    12    30    1
    35    12    31    1
    36    13    32    1
    37    13    33    1
    38    15    34    1
    39    16    35    1
    40    18    36    1
    41    19    37    1
    42    19    38    1
    43    19    39    1
    44    20    40    1
    45    22    41    1
    46    23    42    1
    47    23    43    1
    48    23    44    1
@<TRIPOS>MOLECULE
71776762
 29 33 0 0 0
SMALL
GASTEIGER

@<TRIPOS>ATOM
      1 O         118.0069  152.0422  147.1173 O.2     1  UNL11      -0.4731
      2 O         119.6333  149.2111  147.3025 O.3     1  UNL11      -0.2144
      3 O         115.8991  153.9698  146.6023 O.2     1  UNL11      -0.4908
      4 N         123.3202  153.5370  146.6017 N.4     1  UNL11       0.2565
      5 C         120.3609  152.5257  147.0166 C.3     1  UNL11       0.0759
      6 C         121.3183  152.3777  145.7642 C.3     1  UNL11       0.0790
      7 C         122.2097  153.5541  145.6169 C.3     1  UNL11       0.0627
      8 C         119.3017  151.4582  147.1937 C.3     1  UNL11       0.2046
      9 C         121.2810  152.7254  148.1489 C.3     1  UNL11       0.0691
     10 C         119.5042  153.7237  146.7361 C.2     1  UNL11       0.0146
     11 C         121.3176  154.7089  145.6542 C.3     1  UNL11       0.0814
     12 C         122.6914  153.2183  147.9030 C.3     1  UNL11       0.1042
     13 C         119.9654  154.8851  146.1112 C.2     1  UNL11      -0.0172
     14 C         119.5325  150.1733  146.5108 C.3     1  UNL11       0.2136
     15 C         121.2965  151.1237  145.1280 C.2     1  UNL11      -0.0223
     16 C         118.1666  153.3911  146.8398 C.2     1  UNL11       0.1679
     17 C         120.5276  150.2756  145.4824 C.2     1  UNL11       0.0054
     18 C         124.1371  154.7729  146.5888 C.3     1  UNL11      -0.0413
     19 C         119.0320  155.8188  145.7095 C.2     1  UNL11      -0.0011
     20 C         117.2111  154.3160  146.4732 C.2     1  UNL11       0.1702
     21 C         117.6658  155.5457  145.9474 C.2     1  UNL11       0.0397
     22 C         114.9591  154.9481  146.1731 C.3     1  UNL11       0.0790
     23 H         123.9168  152.7259  146.3752 H       1  UNL11       0.2050
     24 H         123.5395  155.6243  146.9295 H       1  UNL11       0.0778
     25 H         124.5092  154.9351  145.5726 H       1  UNL11       0.0778
     26 H         124.9841  154.6205  147.2646 H       1  UNL11       0.0778
     27 H         113.9561  154.5467  146.3469 H       1  UNL11       0.0660
     28 H         115.0595  155.1474  145.1008 H       1  UNL11       0.0660
     29 H         115.0546  155.8718  146.7541 H       1  UNL11       0.0660
@<TRIPOS>UNITY_ATOM_ATTR
4 1
charge 1
@<TRIPOS>BOND
     1     1     8    1
     2     1    16    1
     3     2    14    1
     4     3    20    1
     5     3    22    1
     6     4     7    1
     7     4    12    1
     8     4    18    1
     9     5     6    1
    10     5     8    1
    11     5     9    1
    12     5    10    1
    13     6     7    1
    14     6    15    1
    15     7    11    1
    16     8    14    1
    17     9    12    1
    18    10    13    2
    19    10    16    1
    20    11    13    1
    21    13    19    1
    22    14    17    1
    23    15    17    2
    24    16    20    2
    25    19    21    2
    26    20    21    1
    27     4    23    1
    28    18    24    1
    29    18    25    1
    30    18    26    1
    31    22    27    1
    32    22    28    1
    33    22    29    1
@<TRIPOS>MOLECULE
14261327
 45 49 0 0 0
SMALL
GASTEIGER

@<TRIPOS>ATOM
      1 O         121.5310  153.9000  147.7423 O.3     1  UNL11      -0.4810
      2 O         117.1822  154.9026  146.5656 O.3     1  UNL11      -0.3779
      3 O         122.0154  155.8196  146.0533 O.3     1  UNL11      -0.3841
      4 O         123.6356  151.9501  147.1786 O.3     1  UNL11      -0.4914
      5 N         116.6572  152.3129  146.8364 N.4     1  UNL11       0.2378
      6 C         119.2122  153.6519  147.0733 C.3     1  UNL11       0.0814
      7 C         118.1997  154.0551  145.9848 C.3     1  UNL11       0.1400
      8 C         117.4596  152.7311  145.5736 C.3     1  UNL11       0.0170
      9 C         120.3144  154.6708  147.4366 C.3     1  UNL11       0.1426
     10 C         118.4908  153.1128  148.3334 C.3     1  UNL11       0.0039
     11 C         120.1041  152.5797  146.5419 C.ar    1  UNL11       0.0145
     12 C         118.3773  151.5963  145.0426 C.3     1  UNL11       0.0190
     13 C         117.5107  151.9770  148.0326 C.3     1  UNL11      -0.0307
     14 C         119.7453  151.5709  145.6647 C.ar    1  UNL11      -0.0343
     15 C         120.6256  155.7424  146.3474 C.3     1  UNL11       0.1111
     16 C         118.8181  154.8222  144.8556 C.2     1  UNL11      -0.0479
     17 C         121.3907  152.7482  147.0091 C.ar    1  UNL11       0.1666
     18 C         119.9132  155.5768  145.0344 C.2     1  UNL11      -0.0534
     19 C         115.5769  151.3086  146.5828 C.3     1  UNL11      -0.0427
     20 C         120.7273  150.6331  145.3377 C.ar    1  UNL11      -0.0544
     21 C         122.3714  151.8376  146.6839 C.ar    1  UNL11       0.1618
     22 C         122.0281  150.7530  145.8679 C.ar    1  UNL11      -0.0160
     23 C         124.4642  152.6637  146.2596 C.3     1  UNL11       0.0790
     24 H         117.4011  155.8345  146.3601 H       1  UNL11       0.2109
     25 H         122.4890  155.3612  146.7743 H       1  UNL11       0.2104
     26 H         116.1768  153.1986  147.0855 H       1  UNL11       0.2035
     27 H         116.6851  152.9573  144.8296 H       1  UNL11       0.0886
     28 H         120.0505  155.2036  148.3592 H       1  UNL11       0.0773
     29 H         117.9425  153.9344  148.8130 H       1  UNL11       0.0328
     30 H         119.2100  152.7581  149.0835 H       1  UNL11       0.0328
     31 H         118.5196  151.7644  143.9671 H       1  UNL11       0.0369
     32 H         117.9023  150.6166  145.1538 H       1  UNL11       0.0369
     33 H         118.0181  151.0291  147.8279 H       1  UNL11       0.0815
     34 H         116.8355  151.8296  148.8826 H       1  UNL11       0.0815
     35 H         120.3342  156.7227  146.7439 H       1  UNL11       0.0675
     36 H         118.3482  154.7980  143.8742 H       1  UNL11       0.0600
     37 H         120.3182  156.1439  144.1963 H       1  UNL11       0.0596
     38 H         116.0332  150.3362  146.3859 H       1  UNL11       0.0778
     39 H         114.9860  151.6472  145.7282 H       1  UNL11       0.0778
     40 H         114.9452  151.2627  147.4739 H       1  UNL11       0.0778
     41 H         120.5113  149.8103  144.6583 H       1  UNL11       0.0622
     42 H         122.7837  150.0113  145.6162 H       1  UNL11       0.0655
     43 H         125.4681  152.7243  146.6901 H       1  UNL11       0.0660
     44 H         124.0982  153.6846  146.1077 H       1  UNL11       0.0660
     45 H         124.5376  152.1397  145.3002 H       1  UNL11       0.0660
@<TRIPOS>UNITY_ATOM_ATTR
5 1
charge 1
@<TRIPOS>BOND
     1     1     9    1
     2     1    17    1
     3     2     7    1
     4     3    15    1
     5     4    21    1
     6     4    23    1
     7     5     8    1
     8     5    13    1
     9     5    19    1
    10     6     7    1
    11     6     9    1
    12     6    10    1
    13     6    11    1
    14     7     8    1
    15     7    16    1
    16     8    12    1
    17     9    15    1
    18    10    13    1
    19    11    14   ar
    20    11    17   ar
    21    12    14    1
    22    14    20   ar
    23    15    18    1
    24    16    18    2
    25    17    21   ar
    26    20    22   ar
    27    21    22   ar
    28     2    24    1
    29     3    25    1
    30     5    26    1
    31     8    27    1
    32     9    28    1
    33    10    29    1
    34    10    30    1
    35    12    31    1
    36    12    32    1
    37    13    33    1
    38    13    34    1
    39    15    35    1
    40    16    36    1
    41    18    37    1
    42    19    38    1
    43    19    39    1
    44    19    40    1
    45    20    41    1
    46    22    42    1
    47    23    43    1
    48    23    44    1
    49    23    45    1
@<TRIPOS>MOLECULE
5360241
 47 51 0 0 0
SMALL
GASTEIGER

@<TRIPOS>ATOM
      1 O         118.2261  153.9752  145.0101 O.3     1  UNL11      -0.4813
      2 O         122.7310  154.5722  145.9565 O.3     1  UNL11      -0.3820
      3 O         118.2967  155.2557  147.4495 O.3     1  UNL11      -0.3881
      4 O         116.0114  152.1530  145.5750 O.3     1  UNL11      -0.4914
      5 N         122.8815  151.9878  146.0163 N.4     1  UNL11       0.2375
      6 C         120.5010  153.6005  145.7244 C.3     1  UNL11       0.0775
      7 C         121.6224  153.9883  146.7015 C.3     1  UNL11       0.1219
      8 C         122.1978  152.6401  147.2524 C.3     1  UNL11       0.0133
      9 C         119.4723  154.6823  145.3408 C.3     1  UNL11       0.1387
     10 C         121.1034  152.8818  144.4868 C.3     1  UNL11       0.0036
     11 C         119.5341  152.6540  146.3438 C.ar    1  UNL11       0.0142
     12 C         121.1925  154.9820  147.7833 C.3     1  UNL11      -0.0153
     13 C         119.1844  155.7442  146.4416 C.3     1  UNL11       0.0930
     14 C         121.1738  151.6935  147.9379 C.3     1  UNL11       0.0187
     15 C         120.4503  156.1839  147.1730 C.3     1  UNL11      -0.0205
     16 C         121.9561  151.6653  144.8675 C.3     1  UNL11      -0.0307
     17 C         119.8120  151.7012  147.3044 C.ar    1  UNL11      -0.0343
     18 C         118.2741  152.8510  145.8084 C.ar    1  UNL11       0.1666
     19 C         123.8256  150.8749  146.3413 C.3     1  UNL11      -0.0427
     20 C         118.7653  150.8547  147.6726 C.ar    1  UNL11      -0.0544
     21 C         117.2349  152.0205  146.1580 C.ar    1  UNL11       0.1618
     22 C         117.4911  150.9955  147.0788 C.ar    1  UNL11      -0.0160
     23 C         115.0948  152.7998  146.4569 C.3     1  UNL11       0.0790
     24 H         122.6550  155.5458  145.9515 H       1  UNL11       0.2105
     25 H         117.4599  155.0333  146.9976 H       1  UNL11       0.2099
     26 H         123.4615  152.7757  145.6694 H       1  UNL11       0.2034
     27 H         123.0282  152.8473  147.9390 H       1  UNL11       0.0883
     28 H         119.8110  155.2095  144.4400 H       1  UNL11       0.0769
     29 H         121.7199  153.5888  143.9165 H       1  UNL11       0.0328
     30 H         120.3224  152.5498  143.7899 H       1  UNL11       0.0328
     31 H         122.0754  155.3573  148.3152 H       1  UNL11       0.0296
     32 H         120.5533  154.4972  148.5298 H       1  UNL11       0.0296
     33 H         118.6906  156.6111  145.9882 H       1  UNL11       0.0630
     34 H         121.0478  152.0337  148.9738 H       1  UNL11       0.0369
     35 H         121.5558  150.6688  147.9817 H       1  UNL11       0.0369
     36 H         121.0990  156.7415  146.4899 H       1  UNL11       0.0292
     37 H         120.1841  156.8666  147.9895 H       1  UNL11       0.0292
     38 H         121.3485  150.8032  145.1602 H       1  UNL11       0.0815
     39 H         122.5838  151.3695  144.0197 H       1  UNL11       0.0815
     40 H         123.2503  149.9969  146.6426 H       1  UNL11       0.0778
     41 H         124.4872  151.2075  147.1449 H       1  UNL11       0.0778
     42 H         124.4127  150.6589  145.4446 H       1  UNL11       0.0778
     43 H         118.9117  150.0793  148.4228 H       1  UNL11       0.0622
     44 H         116.6925  150.3107  147.3564 H       1  UNL11       0.0655
     45 H         114.1334  152.8798  145.9409 H       1  UNL11       0.0660
     46 H         115.4347  153.8126  146.6988 H       1  UNL11       0.0660
     47 H         114.9402  152.2204  147.3733 H       1  UNL11       0.0660
@<TRIPOS>UNITY_ATOM_ATTR
5 1
charge 1
@<TRIPOS>BOND
     1     1     9    1
     2     1    18    1
     3     2     7    1
     4     3    13    1
     5     4    21    1
     6     4    23    1
     7     5     8    1
     8     5    16    1
     9     5    19    1
    10     6     7    1
    11     6     9    1
    12     6    10    1
    13     6    11    1
    14     7     8    1
    15     7    12    1
    16     8    14    1
    17     9    13    1
    18    10    16    1
    19    11    17   ar
    20    11    18   ar
    21    12    15    1
    22    13    15    1
    23    14    17    1
    24    17    20   ar
    25    18    21   ar
    26    20    22   ar
    27    21    22   ar
    28     2    24    1
    29     3    25    1
    30     5    26    1
    31     8    27    1
    32     9    28    1
    33    10    29    1
    34    10    30    1
    35    12    31    1
    36    12    32    1
    37    13    33    1
    38    14    34    1
    39    14    35    1
    40    15    36    1
    41    15    37    1
    42    16    38    1
    43    16    39    1
    44    19    40    1
    45    19    41    1
    46    19    42    1
    47    20    43    1
    48    22    44    1
    49    23    45    1
    50    23    46    1
    51    23    47    1
@<TRIPOS>MOLECULE
5324289
 45 49 0 0 0
SMALL
GASTEIGER

@<TRIPOS>ATOM
      1 O         118.6738  154.4571  145.6505 O.3     1  UNL11      -0.4760
      2 O         119.8287  156.8693  147.0070 O.2     1  UNL11      -0.4956
      3 O         116.0940  153.3678  145.8925 O.3     1  UNL11      -0.4914
      4 N         122.8283  151.1629  145.9954 N.4     1  UNL11       0.2386
      5 C         120.7746  153.2580  145.9923 C.3     1  UNL11       0.0746
      6 C         121.7117  153.0506  147.1530 C.2     1  UNL11      -0.0070
      7 C         122.1029  151.5997  147.2685 C.3     1  UNL11       0.0060
      8 C         120.1110  154.6546  145.8134 C.3     1  UNL11       0.1704
      9 C         121.4506  152.8066  144.6824 C.3     1  UNL11       0.0050
     10 C         119.5646  152.4524  146.3037 C.ar    1  UNL11       0.0159
     11 C         120.8481  150.6772  147.5098 C.3     1  UNL11       0.0200
     12 C         122.0152  151.3914  144.7423 C.3     1  UNL11      -0.0303
     13 C         119.5542  151.2153  146.9347 C.ar    1  UNL11      -0.0339
     14 C         118.4173  153.1642  146.0325 C.ar    1  UNL11       0.1674
     15 C         120.4391  155.6255  146.9417 C.2     1  UNL11       0.1388
     16 C         121.9884  154.0383  148.0163 C.2     1  UNL11      -0.0530
     17 C         121.3255  155.3190  147.9058 C.2     1  UNL11      -0.0203
     18 C         118.3094  150.6230  147.1384 C.ar    1  UNL11      -0.0544
     19 C         124.2220  151.7304  145.9014 C.3     1  UNL11      -0.0425
     20 C         117.1690  152.5999  146.2280 C.ar    1  UNL11       0.1619
     21 C         117.1276  151.3021  146.7626 C.ar    1  UNL11      -0.0160
     22 C         119.4109  157.4529  145.7777 C.3     1  UNL11       0.0785
     23 C         114.8047  152.8443  146.1832 C.3     1  UNL11       0.0790
     24 H         122.9599  150.1462  146.0711 H       1  UNL11       0.2037
     25 H         122.8146  151.4287  148.0851 H       1  UNL11       0.0904
     26 H         120.4645  155.1100  144.8792 H       1  UNL11       0.0828
     27 H         122.2642  153.5030  144.4386 H       1  UNL11       0.0330
     28 H         120.7437  152.8578  143.8436 H       1  UNL11       0.0330
     29 H         120.7051  150.6032  148.5963 H       1  UNL11       0.0372
     30 H         121.0294  149.6632  147.1351 H       1  UNL11       0.0372
     31 H         121.2215  150.6372  144.7342 H       1  UNL11       0.0815
     32 H         122.6626  151.1850  143.8829 H       1  UNL11       0.0815
     33 H         122.6120  153.8856  148.8942 H       1  UNL11       0.0620
     34 H         121.5230  156.0448  148.6934 H       1  UNL11       0.0652
     35 H         118.2243  149.6548  147.6288 H       1  UNL11       0.0622
     36 H         124.1663  152.8161  145.7953 H       1  UNL11       0.0778
     37 H         124.7094  151.2805  145.0324 H       1  UNL11       0.0778
     38 H         124.7627  151.4529  146.8101 H       1  UNL11       0.0778
     39 H         116.1801  150.8027  146.9476 H       1  UNL11       0.0655
     40 H         119.1328  158.4918  145.9789 H       1  UNL11       0.0660
     41 H         118.5296  156.9453  145.3775 H       1  UNL11       0.0660
     42 H         120.2254  157.4587  145.0463 H       1  UNL11       0.0660
     43 H         114.0646  153.5951  145.8904 H       1  UNL11       0.0660
     44 H         114.6856  152.6586  147.2558 H       1  UNL11       0.0660
     45 H         114.6086  151.9378  145.6011 H       1  UNL11       0.0660
@<TRIPOS>UNITY_ATOM_ATTR
4 1
charge 1
@<TRIPOS>BOND
     1     1     8    1
     2     1    14    1
     3     2    15    1
     4     2    22    1
     5     3    20    1
     6     3    23    1
     7     4     7    1
     8     4    12    1
     9     4    19    1
    10     5     6    1
    11     5     8    1
    12     5     9    1
    13     5    10    1
    14     6     7    1
    15     6    16    2
    16     7    11    1
    17     8    15    1
    18     9    12    1
    19    10    13   ar
    20    10    14   ar
    21    11    13    1
    22    13    18   ar
    23    14    20   ar
    24    15    17    2
    25    16    17    1
    26    18    21   ar
    27    20    21   ar
    28     4    24    1
    29     7    25    1
    30     8    26    1
    31     9    27    1
    32     9    28    1
    33    11    29    1
    34    11    30    1
    35    12    31    1
    36    12    32    1
    37    16    33    1
    38    17    34    1
    39    18    35    1
    40    19    36    1
    41    19    37    1
    42    19    38    1
    43    21    39    1
    44    22    40    1
    45    22    41    1
    46    22    42    1
    47    23    43    1
    48    23    44    1
    49    23    45    1
@<TRIPOS>MOLECULE
5288826
 41 45 0 0 0
SMALL
GASTEIGER

@<TRIPOS>ATOM
      1 O         117.9009  152.5788  147.6841 O.3     1  UNL11      -0.4811
      2 O         117.0578  150.6933  146.0420 O.3     1  UNL11      -0.3841
      3 O         116.2997  154.9484  147.1287 O.3     1  UNL11      -0.5033
      4 N         123.0244  153.1454  146.8632 N.4     1  UNL11       0.2359
      5 C         120.2426  152.3190  147.0680 C.3     1  UNL11       0.0553
      6 C         121.1669  151.7272  145.9934 C.3     1  UNL11       0.0339
      7 C         122.1786  152.8498  145.6005 C.3     1  UNL11      -0.0097
      8 C         118.9350  151.5617  147.4071 C.3     1  UNL11       0.1402
      9 C         121.0611  152.6623  148.3313 C.3     1  UNL11       0.0015
     10 C         119.6160  153.5658  146.5393 C.ar    1  UNL11       0.0120
     11 C         121.5056  154.1341  145.0240 C.3     1  UNL11       0.0165
     12 C         122.2233  153.6156  148.0562 C.3     1  UNL11      -0.0309
     13 C         120.1848  154.4708  145.6596 C.ar    1  UNL11      -0.0345
     14 C         118.4482  150.5689  146.3096 C.3     1  UNL11       0.1110
     15 C         120.4027  151.1422  144.8367 C.2     1  UNL11      -0.0761
     16 C         118.3211  153.6823  146.9897 C.ar    1  UNL11       0.1663
     17 C         119.1723  150.6314  144.9954 C.2     1  UNL11      -0.0558
     18 C         124.2136  154.0357  146.6046 C.3     1  UNL11      -0.0428
     19 C         119.4262  155.5949  145.3214 C.ar    1  UNL11      -0.0544
     20 C         117.5705  154.7907  146.6777 C.ar    1  UNL11       0.1588
     21 C         118.1296  155.7631  145.8495 C.ar    1  UNL11      -0.0162
     22 H         116.7783  151.5791  146.3366 H       1  UNL11       0.2104
     23 H         116.0925  154.1852  147.6987 H       1  UNL11       0.2923
     24 H         123.4399  152.2436  147.1357 H       1  UNL11       0.2034
     25 H         121.7376  150.8911  146.4236 H       1  UNL11       0.0408
     26 H         122.8975  152.4612  144.8684 H       1  UNL11       0.0860
     27 H         119.0532  150.9935  148.3387 H       1  UNL11       0.0772
     28 H         121.4588  151.7318  148.7581 H       1  UNL11       0.0327
     29 H         120.4257  153.1069  149.1084 H       1  UNL11       0.0327
     30 H         121.3087  153.9514  143.9592 H       1  UNL11       0.0368
     31 H         122.1735  154.9984  145.0768 H       1  UNL11       0.0368
     32 H         121.8889  154.6388  147.8580 H       1  UNL11       0.0815
     33 H         122.9052  153.6366  148.9135 H       1  UNL11       0.0815
     34 H         118.5964  149.5503  146.6892 H       1  UNL11       0.0675
     35 H         120.8716  151.0834  143.8557 H       1  UNL11       0.0575
     36 H         118.6650  150.1770  144.1446 H       1  UNL11       0.0596
     37 H         123.8700  155.0605  146.4502 H       1  UNL11       0.0778
     38 H         124.7407  153.6553  145.7263 H       1  UNL11       0.0778
     39 H         124.8648  153.9810  147.4813 H       1  UNL11       0.0778
     40 H         119.8085  156.3397  144.6254 H       1  UNL11       0.0622
     41 H         117.5414  156.6373  145.5775 H       1  UNL11       0.0655
@<TRIPOS>UNITY_ATOM_ATTR
4 1
charge 1
@<TRIPOS>BOND
     1     1     8    1
     2     1    16    1
     3     2    14    1
     4     3    20    1
     5     4     7    1
     6     4    12    1
     7     4    18    1
     8     5     6    1
     9     5     8    1
    10     5     9    1
    11     5    10    1
    12     6     7    1
    13     6    15    1
    14     7    11    1
    15     8    14    1
    16     9    12    1
    17    10    13   ar
    18    10    16   ar
    19    11    13    1
    20    13    19   ar
    21    14    17    1
    22    15    17    2
    23    16    20   ar
    24    19    21   ar
    25    20    21   ar
    26     2    22    1
    27     3    23    1
    28     4    24    1
    29     6    25    1
    30     7    26    1
    31     8    27    1
    32     9    28    1
    33     9    29    1
    34    11    30    1
    35    11    31    1
    36    12    32    1
    37    12    33    1
    38    14    34    1
    39    15    35    1
    40    17    36    1
    41    18    37    1
    42    18    38    1
    43    18    39    1
    44    19    40    1
    45    21    41    1
@<TRIPOS>MOLECULE
5486550
 49 53 0 0 0
SMALL
GASTEIGER

@<TRIPOS>ATOM
      1 O         118.5978  153.4559  147.5442 O.2     1  UNL11      -0.4799
      2 O         117.0209  151.9917  145.9690 O.3     1  UNL11      -0.4536
      3 O         117.9960  156.1198  146.8378 O.2     1  UNL11      -0.4914
      4 O         116.2061  151.3091  148.0011 O.2     1  UNL11      -0.2511
      5 N         123.4762  151.8443  146.8147 N.4     1  UNL11       0.2359
      6 C         120.6014  152.2326  146.9795 C.3     1  UNL11       0.0564
      7 C         121.2058  151.2452  145.9714 C.3     1  UNL11       0.0340
      8 C         122.5894  151.8298  145.5463 C.3     1  UNL11      -0.0097
      9 C         119.1022  152.0926  147.3288 C.3     1  UNL11       0.1512
     10 C         121.4832  152.3040  148.2446 C.3     1  UNL11       0.0015
     11 C         120.5342  153.5869  146.3519 C.3     1  UNL11       0.0121
     12 C         122.4990  153.2328  144.8688 C.3     1  UNL11       0.0165
     13 C         122.9308  152.6855  147.9472 C.3     1  UNL11      -0.0309
     14 C         121.4198  154.1152  145.4319 C.3     1  UNL11      -0.0345
     15 C         118.2462  151.3130  146.2792 C.3     1  UNL11       0.1587
     16 C         120.2743  150.9593  144.8235 C.2     1  UNL11      -0.0751
     17 C         119.3955  154.2505  146.7595 C.3     1  UNL11       0.1666
     18 C         118.9418  151.0133  144.9721 C.2     1  UNL11      -0.0438
     19 C         124.9264  152.1490  146.5424 C.3     1  UNL11      -0.0428
     20 C         121.1739  155.4169  144.9957 C.3     1  UNL11      -0.0544
     21 C         119.1335  155.5461  146.3548 C.3     1  UNL11       0.1618
     22 C         120.0503  156.1324  145.4701 C.3     1  UNL11      -0.0160
     23 C         116.0824  151.9313  146.9547 C.2     1  UNL11       0.3046
     24 C         117.7348  157.4642  146.4561 C.3     1  UNL11       0.0790
     25 C         114.8891  152.7583  146.5896 C.3     1  UNL11       0.0333
     26 H         123.4813  150.8745  147.1606 H       1  UNL11       0.2034
     27 H         121.3802  150.2778  146.4645 H       1  UNL11       0.0408
     28 H         123.0917  151.1331  144.8635 H       1  UNL11       0.0860
     29 H         118.9882  151.5750  148.2902 H       1  UNL11       0.0783
     30 H         121.4686  151.3245  148.7411 H       1  UNL11       0.0327
     31 H         121.0794  153.0205  148.9718 H       1  UNL11       0.0327
     32 H         122.2578  153.0707  143.8098 H       1  UNL11       0.0368
     33 H         123.4584  153.7569  144.8964 H       1  UNL11       0.0368
     34 H         123.0406  153.7387  147.6706 H       1  UNL11       0.0815
     35 H         123.5598  152.4924  148.8233 H       1  UNL11       0.0815
     36 H         118.0090  150.3215  146.6922 H       1  UNL11       0.0817
     37 H         120.6838  150.6636  143.8592 H       1  UNL11       0.0575
     38 H         118.2986  150.7661  144.1285 H       1  UNL11       0.0607
     39 H         125.0343  153.2099  146.3078 H       1  UNL11       0.0778
     40 H         125.2572  151.5216  145.7111 H       1  UNL11       0.0778
     41 H         125.4926  151.8994  147.4440 H       1  UNL11       0.0778
     42 H         121.8249  155.8910  144.2629 H       1  UNL11       0.0622
     43 H         119.9012  157.1415  145.0949 H       1  UNL11       0.0655
     44 H         116.8084  157.7777  146.9468 H       1  UNL11       0.0660
     45 H         117.5834  157.5439  145.3747 H       1  UNL11       0.0660
     46 H         118.5337  158.1328  146.7935 H       1  UNL11       0.0660
     47 H         115.1190  153.8170  146.7305 H       1  UNL11       0.0342
     48 H         114.0474  152.4804  147.2302 H       1  UNL11       0.0342
     49 H         114.6013  152.5646  145.5528 H       1  UNL11       0.0342
@<TRIPOS>UNITY_ATOM_ATTR
5 1
charge 1
@<TRIPOS>BOND
     1     1     9    1
     2     1    17    1
     3     2    15    1
     4     2    23    1
     5     3    21    1
     6     3    24    1
     7     4    23    2
     8     5     8    1
     9     5    13    1
    10     5    19    1
    11     6     7    1
    12     6     9    1
    13     6    10    1
    14     6    11    1
    15     7     8    1
    16     7    16    1
    17     8    12    1
    18     9    15    1
    19    10    13    1
    20    11    14   ar
    21    11    17   ar
    22    12    14    1
    23    14    20   ar
    24    15    18    1
    25    16    18    2
    26    17    21   ar
    27    20    22   ar
    28    21    22   ar
    29    23    25    1
    30     5    26    1
    31     7    27    1
    32     8    28    1
    33     9    29    1
    34    10    30    1
    35    10    31    1
    36    12    32    1
    37    12    33    1
    38    13    34    1
    39    13    35    1
    40    15    36    1
    41    16    37    1
    42    18    38    1
    43    19    39    1
    44    19    40    1
    45    19    41    1
    46    20    42    1
    47    22    43    1
    48    24    44    1
    49    24    45    1
    50    24    46    1
    51    25    47    1
    52    25    48    1
    53    25    49    1
@<TRIPOS>MOLECULE
5486611
 44 48 0 0 0
SMALL
GASTEIGER

@<TRIPOS>ATOM
      1 O         121.5937  152.2829  145.1233 O.3     1  UNL11      -0.4799
      2 O         117.1059  151.0111  147.8072 O.3     1  UNL11      -0.3873
      3 O         124.0410  153.4916  146.5554 O.3     1  UNL11      -0.4914
      4 N         117.1657  154.9172  145.9604 N.4     1  UNL11       0.2358
      5 C         119.3390  153.0083  145.5757 C.3     1  UNL11       0.0554
      6 C         118.1109  152.6301  146.3992 C.3     1  UNL11       0.0454
      7 C         117.5908  153.9221  147.0706 C.3     1  UNL11      -0.0105
      8 C         120.2024  151.8468  145.0484 C.3     1  UNL11       0.1290
      9 C         118.9458  153.9857  144.4493 C.3     1  UNL11       0.0015
     10 C         120.3474  153.6387  146.4707 C.ar    1  UNL11       0.0120
     11 C         118.3805  151.5146  147.4274 C.3     1  UNL11       0.0823
     12 C         118.6378  154.6188  148.0050 C.3     1  UNL11       0.0163
     13 C         118.2528  155.2440  144.9617 C.3     1  UNL11      -0.0309
     14 C         120.0681  154.4462  147.5617 C.ar    1  UNL11      -0.0345
     15 C         121.6249  153.2350  146.1166 C.ar    1  UNL11       0.1669
     16 C         120.0425  150.5587  145.8171 C.2     1  UNL11      -0.0447
     17 C         119.2200  150.4049  146.8690 C.2     1  UNL11      -0.0559
     18 C         115.8569  154.5494  145.3035 C.3     1  UNL11      -0.0428
     19 C         121.1605  154.9580  148.2548 C.ar    1  UNL11      -0.0544
     20 C         122.7220  153.7458  146.7808 C.ar    1  UNL11       0.1618
     21 C         122.4704  154.6241  147.8508 C.ar    1  UNL11      -0.0160
     22 C         124.3655  152.6686  145.4422 C.3     1  UNL11       0.0790
     23 H         117.2468  150.2044  148.3378 H       1  UNL11       0.2102
     24 H         116.9606  155.8031  146.4427 H       1  UNL11       0.2033
     25 H         117.3370  152.2491  145.7180 H       1  UNL11       0.0394
     26 H         116.6798  153.7362  147.6514 H       1  UNL11       0.0858
     27 H         119.9783  151.6369  143.9954 H       1  UNL11       0.0787
     28 H         118.2786  153.4701  143.7463 H       1  UNL11       0.0327
     29 H         119.8248  154.2889  143.8654 H       1  UNL11       0.0327
     30 H         118.8620  151.8877  148.3365 H       1  UNL11       0.0643
     31 H         118.5492  154.1662  149.0010 H       1  UNL11       0.0368
     32 H         118.4093  155.6853  148.1150 H       1  UNL11       0.0368
     33 H         118.9539  155.9173  145.4654 H       1  UNL11       0.0815
     34 H         117.7966  155.8095  144.1418 H       1  UNL11       0.0815
     35 H         120.6549  149.7209  145.4887 H       1  UNL11       0.0606
     36 H         119.2087  149.4448  147.3810 H       1  UNL11       0.0596
     37 H         115.9985  153.6631  144.6825 H       1  UNL11       0.0778
     38 H         115.5413  155.3993  144.6923 H       1  UNL11       0.0778
     39 H         115.1198  154.3682  146.0897 H       1  UNL11       0.0778
     40 H         121.0264  155.5943  149.1276 H       1  UNL11       0.0622
     41 H         123.3156  155.0302  148.4066 H       1  UNL11       0.0655
     42 H         125.4565  152.6317  145.3643 H       1  UNL11       0.0660
     43 H         123.9844  153.0934  144.5077 H       1  UNL11       0.0660
     44 H         124.0122  151.6440  145.5944 H       1  UNL11       0.0660
@<TRIPOS>UNITY_ATOM_ATTR
4 1
charge 1
@<TRIPOS>BOND
     1     1     8    1
     2     1    15    1
     3     2    11    1
     4     3    20    1
     5     3    22    1
     6     4     7    1
     7     4    13    1
     8     4    18    1
     9     5     6    1
    10     5     8    1
    11     5     9    1
    12     5    10    1
    13     6     7    1
    14     6    11    1
    15     7    12    1
    16     8    16    1
    17     9    13    1
    18    10    14   ar
    19    10    15   ar
    20    11    17    1
    21    12    14    1
    22    14    19   ar
    23    15    20   ar
    24    16    17    2
    25    19    21   ar
    26    20    21   ar
    27     2    23    1
    28     4    24    1
    29     6    25    1
    30     7    26    1
    31     8    27    1
    32     9    28    1
    33     9    29    1
    34    11    30    1
    35    12    31    1
    36    12    32    1
    37    13    33    1
    38    13    34    1
    39    16    35    1
    40    17    36    1
    41    18    37    1
    42    18    38    1
    43    18    39    1
    44    19    40    1
    45    21    41    1
    46    22    42    1
    47    22    43    1
    48    22    44    1
@<TRIPOS>MOLECULE
1983
 20 20 0 0 0
SMALL
GASTEIGER

@<TRIPOS>ATOM
      1 O         123.7428  153.4568  146.4082 O.2     1  UNL111     -0.5068
      2 O         117.2201  154.4872  146.4077 O.2     1  UNL111     -0.2758
      3 N         118.2763  152.4012  146.4080 N.am    1  UNL111     -0.2857
      4 C         119.6445  152.7417  146.4079 C.3     1  UNL111      0.0336
      5 C         120.1228  154.0545  146.4084 C.3     1  UNL111     -0.0370
      6 C         120.5664  151.6857  146.4075 C.3     1  UNL111     -0.0370
      7 C         121.4988  154.3115  146.4085 C.3     1  UNL111     -0.0184
      8 C         121.9402  151.9398  146.4076 C.3     1  UNL111     -0.0184
      9 C         122.3959  153.2505  146.4081 C.3     1  UNL111      0.1170
     10 C         117.1933  153.2622  146.4081 C.2     1  UNL111      0.2141
     11 C         115.8832  152.5151  146.4086 C.3     1  UNL111      0.0125
     12 H         123.9077  154.4143  146.4087 H       1  UNL111      0.2921
     13 H         118.0675  151.4108  146.4079 H       1  UNL111      0.1548
     14 H         119.4496  154.9061  146.4087 H       1  UNL111      0.0637
     15 H         120.2328  150.6517  146.4072 H       1  UNL111      0.0637
     16 H         121.8411  155.3416  146.4088 H       1  UNL111      0.0655
     17 H         122.6505  151.1180  146.4073 H       1  UNL111      0.0655
     18 H         115.0520  153.2257  146.4094 H       1  UNL111      0.0323
     19 H         115.8140  151.8878  147.3019 H       1  UNL111      0.0323
     20 H         115.8129  151.8885  145.5150 H       1  UNL111      0.0323
@<TRIPOS>BOND
     1     1     9    1
     2     2    10    2
     3     3     4    1
     4     3    10   am
     5     4     5   ar
     6     4     6   ar
     7     5     7   ar
     8     6     8   ar
     9     7     9   ar
    10     8     9   ar
    11    10    11    1
    12     1    12    1
    13     3    13    1
    14     5    14    1
    15     6    15    1
    16     7    16    1
    17     8    17    1
    18    11    18    1
    19    11    19    1
    20    11    20    1
@<TRIPOS>MOLECULE
9925873
 41 45 0 0 0
SMALL
GASTEIGER

@<TRIPOS>ATOM
      1 O         121.0753  154.1376  147.7884 O.3     1  UNL11      -0.4811
      2 O         121.4790  155.6418  145.6887 O.3     1  UNL11      -0.3841
      3 O         123.3239  152.4140  147.2992 O.3     1  UNL11      -0.4914
      4 N         116.4858  152.0226  146.8660 N.4     1  UNL11       0.2299
      5 C         118.8137  153.7176  147.0717 C.3     1  UNL11       0.0553
      6 C         117.7223  154.0039  146.0347 C.3     1  UNL11       0.0339
      7 C         119.8425  154.8262  147.3734 C.3     1  UNL11       0.1402
      8 C         117.1365  152.6246  145.6215 C.3     1  UNL11      -0.0113
      9 C         119.7846  152.7112  146.5541 C.ar    1  UNL11       0.0120
     10 C         118.1516  153.1456  148.3477 C.3     1  UNL11       0.0014
     11 C         118.1660  151.6266  145.0134 C.3     1  UNL11       0.0165
     12 C         119.5227  151.6924  145.6571 C.ar    1  UNL11      -0.0345
     13 C         117.3590  151.8680  148.0750 C.3     1  UNL11      -0.0324
     14 C         120.1514  155.7954  146.1861 C.3     1  UNL11       0.1110
     15 C         118.1846  154.8634  144.8959 C.2     1  UNL11      -0.0761
     16 C         121.0426  152.9650  147.0640 C.ar    1  UNL11       0.1666
     17 C         119.2558  155.6643  144.9880 C.2     1  UNL11      -0.0558
     18 C         120.5843  150.8433  145.3410 C.ar    1  UNL11      -0.0544
     19 C         122.1054  152.1470  146.7522 C.ar    1  UNL11       0.1618
     20 C         121.8624  151.0565  145.9055 C.ar    1  UNL11      -0.0160
     21 C         124.3382  152.5809  146.3092 C.3     1  UNL11       0.0790
     22 H         122.0299  155.3397  146.4366 H       1  UNL11       0.2104
     23 H         116.0937  151.1000  146.6282 H       1  UNL11       0.2016
     24 H         115.6704  152.5980  147.1211 H       1  UNL11       0.2016
     25 H         116.9167  154.5814  146.5126 H       1  UNL11       0.0408
     26 H         119.5007  155.4283  148.2250 H       1  UNL11       0.0772
     27 H         116.3062  152.7518  144.9169 H       1  UNL11       0.0860
     28 H         117.4776  153.9031  148.7693 H       1  UNL11       0.0327
     29 H         118.8948  152.9336  149.1273 H       1  UNL11       0.0327
     30 H         118.2946  151.8768  143.9527 H       1  UNL11       0.0368
     31 H         117.7779  150.6026  145.0656 H       1  UNL11       0.0368
     32 H         118.0050  151.0022  147.9014 H       1  UNL11       0.0814
     33 H         116.6956  151.6306  148.9127 H       1  UNL11       0.0814
     34 H         120.0754  156.8241  146.5571 H       1  UNL11       0.0675
     35 H         117.6008  154.8836  143.9766 H       1  UNL11       0.0575
     36 H         119.5269  156.2867  144.1349 H       1  UNL11       0.0596
     37 H         120.4512  150.0190  144.6422 H       1  UNL11       0.0622
     38 H         122.6681  150.3693  145.6571 H       1  UNL11       0.0655
     39 H         125.2146  153.0151  146.7997 H       1  UNL11       0.0660
     40 H         124.0169  153.2709  145.5203 H       1  UNL11       0.0660
     41 H         124.6350  151.6179  145.8825 H       1  UNL11       0.0660
@<TRIPOS>UNITY_ATOM_ATTR
4 1
charge 1
@<TRIPOS>BOND
     1     1     7    1
     2     1    16    1
     3     2    14    1
     4     3    19    1
     5     3    21    1
     6     4     8    1
     7     4    13    1
     8     5     6    1
     9     5     7    1
    10     5     9    1
    11     5    10    1
    12     6     8    1
    13     6    15    1
    14     7    14    1
    15     8    11    1
    16     9    12   ar
    17     9    16   ar
    18    10    13    1
    19    11    12    1
    20    12    18   ar
    21    14    17    1
    22    15    17    2
    23    16    19   ar
    24    18    20   ar
    25    19    20   ar
    26     2    22    1
    27     4    23    1
    28     4    24    1
    29     6    25    1
    30     7    26    1
    31     8    27    1
    32    10    28    1
    33    10    29    1
    34    11    30    1
    35    11    31    1
    36    13    32    1
    37    13    33    1
    38    14    34    1
    39    15    35    1
    40    17    36    1
    41    18    37    1
    42    20    38    1
    43    21    39    1
    44    21    40    1
    45    21    41    1
@<TRIPOS>MOLECULE
5463872
 55 60 0 0 0
SMALL
GASTEIGER

@<TRIPOS>ATOM
      1 O         119.8509  153.5129  147.8652 O.2     1  UNL11      -0.4799
      2 O         118.1757  152.1304  146.4370 O.3     1  UNL11      -0.4499
      3 O         119.1621  156.1352  147.0798 O.2     1  UNL11      -0.4914
      4 O         116.8329  150.3034  146.7670 O.2     1  UNL11      -0.2449
      5 N         124.6249  151.8586  146.7110 N.4     1  UNL11       0.2359
      6 N         115.0344  154.7094  146.1910 N.pl3   1  UNL11      -0.2624
      7 C         121.7785  152.2558  147.1406 C.3     1  UNL11       0.0564
      8 C         122.2872  151.2147  146.1351 C.3     1  UNL11       0.0340
      9 C         123.6153  151.7777  145.5403 C.3     1  UNL11      -0.0097
     10 C         120.3197  152.1397  147.6364 C.3     1  UNL11       0.1512
     11 C         122.7806  152.3918  148.3078 C.3     1  UNL11       0.0015
     12 C         121.6447  153.5775  146.4593 C.3     1  UNL11       0.0121
     13 C         123.4476  153.1432  144.8026 C.3     1  UNL11       0.0165
     14 C         124.1908  152.7561  147.8485 C.3     1  UNL11      -0.0309
     15 C         122.4278  154.0552  145.4261 C.3     1  UNL11      -0.0345
     16 C         119.3545  151.3484  146.6972 C.3     1  UNL11       0.1590
     17 C         121.2524  150.8483  145.1075 C.2     1  UNL11      -0.0751
     18 C         120.5566  154.2662  146.9568 C.3     1  UNL11       0.1666
     19 C         119.9394  150.9227  145.3717 C.2     1  UNL11      -0.0438
     20 C         126.0389  152.1483  146.2789 C.3     1  UNL11      -0.0428
     21 C         122.1331  155.3337  144.9533 C.3     1  UNL11      -0.0544
     22 C         120.2451  155.5367  146.5109 C.3     1  UNL11       0.1618
     23 C         121.0619  156.0745  145.5055 C.3     1  UNL11      -0.0160
     24 C         116.9876  151.4958  146.5560 C.2     1  UNL11       0.3413
     25 C         118.7600  157.3916  146.5482 C.3     1  UNL11       0.0790
     26 C         115.8689  152.4426  146.3686 C.3     1  UNL11       0.0770
     27 C         114.5697  151.9496  146.2189 C.3     1  UNL11      -0.0449
     28 C         116.0471  153.8204  146.3543 C.3     1  UNL11       0.0415
     29 C         113.5118  152.8408  146.0543 C.3     1  UNL11      -0.0428
     30 C         113.7911  154.1983  146.0471 C.3     1  UNL11       0.0276
     31 H         124.6706  150.9076  147.1031 H       1  UNL11       0.2034
     32 H         122.5203  150.2796  146.6651 H       1  UNL11       0.0408
     33 H         124.0507  151.0466  144.8477 H       1  UNL11       0.0860
     34 H         120.2967  151.6464  148.6169 H       1  UNL11       0.0783
     35 H         122.8192  151.4392  148.8531 H       1  UNL11       0.0327
     36 H         122.4483  153.1450  149.0341 H       1  UNL11       0.0327
     37 H         123.0997  152.9253  143.7841 H       1  UNL11       0.0368
     38 H         124.4024  153.6673  144.7042 H       1  UNL11       0.0368
     39 H         124.2684  153.7939  147.5097 H       1  UNL11       0.0815
     40 H         124.9045  152.6066  148.6663 H       1  UNL11       0.0815
     41 H         119.0970  150.4224  147.2285 H       1  UNL11       0.0817
     42 H         121.5704  150.4637  144.1397 H       1  UNL11       0.0575
     43 H         119.2254  150.6023  144.6136 H       1  UNL11       0.0607
     44 H         126.1172  153.1953  145.9794 H       1  UNL11       0.0778
     45 H         126.2877  151.4778  145.4526 H       1  UNL11       0.0778
     46 H         126.6938  151.9459  147.1308 H       1  UNL11       0.0778
     47 H         122.7033  155.7699  144.1345 H       1  UNL11       0.0622
     48 H         120.8727  157.0650  145.0996 H       1  UNL11       0.0655
     49 H         117.8593  157.7089  147.0823 H       1  UNL11       0.0660
     50 H         118.5074  157.3092  145.4859 H       1  UNL11       0.0660
     51 H         119.5310  158.1516  146.7125 H       1  UNL11       0.0660
     52 H         114.3782  150.8788  146.2317 H       1  UNL11       0.0627
     53 H         117.0248  154.2771  146.4850 H       1  UNL11       0.0838
     54 H         112.4936  152.4847  145.9372 H       1  UNL11       0.0633
     55 H         112.9985  154.9318  145.9246 H       1  UNL11       0.0829
@<TRIPOS>UNITY_ATOM_ATTR
5 1
charge 1
@<TRIPOS>BOND
     1     1    10    1
     2     1    18    1
     3     2    16    1
     4     2    24    1
     5     3    22    1
     6     3    25    1
     7     4    24    2
     8     5     9    1
     9     5    14    1
    10     5    20    1
    11     6    28   ar
    12     6    30   ar
    13     7     8    1
    14     7    10    1
    15     7    11    1
    16     7    12    1
    17     8     9    1
    18     8    17    1
    19     9    13    1
    20    10    16    1
    21    11    14    1
    22    12    15   ar
    23    12    18   ar
    24    13    15    1
    25    15    21   ar
    26    16    19    1
    27    17    19    2
    28    18    22   ar
    29    21    23   ar
    30    22    23   ar
    31    24    26    1
    32    26    27   ar
    33    26    28   ar
    34    27    29   ar
    35    29    30   ar
    36     5    31    1
    37     8    32    1
    38     9    33    1
    39    10    34    1
    40    11    35    1
    41    11    36    1
    42    13    37    1
    43    13    38    1
    44    14    39    1
    45    14    40    1
    46    16    41    1
    47    17    42    1
    48    19    43    1
    49    20    44    1
    50    20    45    1
    51    20    46    1
    52    21    47    1
    53    23    48    1
    54    25    49    1
    55    25    50    1
    56    25    51    1
    57    27    52    1
    58    28    53    1
    59    29    54    1
    60    30    55    1
@<TRIPOS>MOLECULE
101685
 44 48 0 0 0
SMALL
GASTEIGER

@<TRIPOS>ATOM
      1 O         118.0086  153.9466  145.7508 O.3     1  UNL11      -0.4811
      2 O         118.3072  156.7240  146.8187 O.3     1  UNL11      -0.3878
      3 O         115.9869  151.7324  146.4574 O.3     1  UNL11      -0.4914
      4 N         123.0393  152.4515  145.8565 N.4     1  UNL11       0.2386
      5 C         120.4005  153.6581  146.0416 C.3     1  UNL11       0.0697
      6 C         119.2644  154.6890  145.9077 C.3     1  UNL11       0.1400
      7 C         121.4951  153.9293  147.0372 C.2     1  UNL11      -0.0113
      8 C         122.3719  152.7070  147.2033 C.3     1  UNL11       0.0057
      9 C         121.0236  153.3280  144.6705 C.3     1  UNL11       0.0047
     10 C         119.5973  152.5175  146.5533 C.ar    1  UNL11       0.0155
     11 C         119.1640  155.6235  147.1292 C.3     1  UNL11       0.0965
     12 C         121.5495  151.4687  147.7143 C.3     1  UNL11       0.0200
     13 C         122.0596  152.2068  144.7331 C.3     1  UNL11      -0.0303
     14 C         120.1043  151.4390  147.2661 C.ar    1  UNL11      -0.0339
     15 C         118.2496  152.7086  146.2988 C.ar    1  UNL11       0.1669
     16 C         121.5881  155.0974  147.6909 C.2     1  UNL11      -0.0760
     17 C         120.5423  156.1727  147.5364 C.3     1  UNL11      -0.0046
     18 C         119.1972  150.4509  147.6342 C.ar    1  UNL11      -0.0544
     19 C         117.3359  151.7330  146.6457 C.ar    1  UNL11       0.1618
     20 C         124.1343  151.4241  145.8955 C.3     1  UNL11      -0.0425
     21 C         117.8328  150.5929  147.3053 C.ar    1  UNL11      -0.0160
     22 C         115.4206  152.8385  145.7669 C.3     1  UNL11       0.0790
     23 H         117.4255  156.3546  146.6219 H       1  UNL11       0.2100
     24 H         123.5137  153.3374  145.6343 H       1  UNL11       0.2037
     25 H         119.3786  155.2979  145.0014 H       1  UNL11       0.0771
     26 H         123.1932  152.9087  147.9017 H       1  UNL11       0.0904
     27 H         121.5090  154.2298  144.2720 H       1  UNL11       0.0330
     28 H         120.2516  153.0473  143.9421 H       1  UNL11       0.0330
     29 H         118.7105  155.1000  147.9803 H       1  UNL11       0.0634
     30 H         121.5348  151.5234  148.8114 H       1  UNL11       0.0372
     31 H         122.0349  150.5250  147.4489 H       1  UNL11       0.0372
     32 H         121.6040  151.2236  144.8877 H       1  UNL11       0.0815
     33 H         122.6375  152.1758  143.8027 H       1  UNL11       0.0815
     34 H         122.3848  155.2898  148.4070 H       1  UNL11       0.0575
     35 H         120.4327  156.7071  148.4883 H       1  UNL11       0.0334
     36 H         120.8921  156.9198  146.8133 H       1  UNL11       0.0334
     37 H         119.5132  149.5784  148.2026 H       1  UNL11       0.0622
     38 H         123.6946  150.4317  146.0131 H       1  UNL11       0.0778
     39 H         124.8007  151.6636  146.7280 H       1  UNL11       0.0778
     40 H         124.6834  151.4873  144.9521 H       1  UNL11       0.0778
     41 H         117.1325  149.8133  147.6055 H       1  UNL11       0.0655
     42 H         114.3477  152.6497  145.6614 H       1  UNL11       0.0660
     43 H         115.8380  152.9352  144.7594 H       1  UNL11       0.0660
     44 H         115.5360  153.7623  146.3427 H       1  UNL11       0.0660
@<TRIPOS>UNITY_ATOM_ATTR
4 1
charge 1
@<TRIPOS>BOND
     1     1     6    1
     2     1    15    1
     3     2    11    1
     4     3    19    1
     5     3    22    1
     6     4     8    1
     7     4    13    1
     8     4    20    1
     9     5     6    1
    10     5     7    1
    11     5     9    1
    12     5    10    1
    13     6    11    1
    14     7     8    1
    15     7    16    2
    16     8    12    1
    17     9    13    1
    18    10    14   ar
    19    10    15   ar
    20    11    17    1
    21    12    14    1
    22    14    18   ar
    23    15    19   ar
    24    16    17    1
    25    18    21   ar
    26    19    21   ar
    27     2    23    1
    28     4    24    1
    29     6    25    1
    30     8    26    1
    31     9    27    1
    32     9    28    1
    33    11    29    1
    34    12    30    1
    35    12    31    1
    36    13    32    1
    37    13    33    1
    38    16    34    1
    39    17    35    1
    40    17    36    1
    41    18    37    1
    42    20    38    1
    43    20    39    1
    44    20    40    1
    45    21    41    1
    46    22    42    1
    47    22    43    1
    48    22    44    1
@<TRIPOS>MOLECULE
5462306
 42 46 0 0 0
SMALL
GASTEIGER

@<TRIPOS>ATOM
      1 O         117.8847  152.8857  145.4502 O.3     1  UNL11      -0.4760
      2 O         116.8814  155.5670  146.1696 O.2     1  UNL11      -0.4956
      3 O         116.9602  150.2049  146.0396 O.3     1  UNL11      -0.5033
      4 N         123.0765  153.8621  146.0531 N.4     1  UNL11       0.2386
      5 C         120.1807  153.6726  145.8383 C.3     1  UNL11       0.0746
      6 C         120.8742  154.3625  146.9882 C.2     1  UNL11      -0.0070
      7 C         122.1972  153.6959  147.2878 C.3     1  UNL11       0.0060
      8 C         118.7204  154.0888  145.4946 C.3     1  UNL11       0.1704
      9 C         121.0704  153.7175  144.5811 C.3     1  UNL11       0.0050
     10 C         119.9296  152.2840  146.3008 C.ar    1  UNL11       0.0158
     11 C         122.0099  152.1830  147.6841 C.3     1  UNL11       0.0200
     12 C         122.4933  153.2202  144.8179 C.3     1  UNL11      -0.0303
     13 C         120.7814  151.5222  147.0923 C.ar    1  UNL11      -0.0339
     14 C         118.6481  151.8916  145.9985 C.ar    1  UNL11       0.1672
     15 C         118.1620  155.1271  146.4501 C.2     1  UNL11       0.1388
     16 C         120.2731  155.3351  147.6899 C.2     1  UNL11      -0.0530
     17 C         118.9096  155.7231  147.3974 C.2     1  UNL11      -0.0203
     18 C         120.3557  150.2358  147.4325 C.ar    1  UNL11      -0.0544
     19 C         124.5171  153.4937  146.2669 C.3     1  UNL11      -0.0425
     20 C         118.2163  150.6299  146.3353 C.ar    1  UNL11       0.1588
     21 C         119.0821  149.7838  147.0298 C.ar    1  UNL11      -0.0162
     22 C         115.9328  155.0157  147.0845 C.3     1  UNL11       0.0785
     23 H         116.5078  150.9457  145.5936 H       1  UNL11       0.2923
     24 H         123.0853  154.8758  145.8745 H       1  UNL11       0.2037
     25 H         122.7249  154.2195  148.0940 H       1  UNL11       0.0904
     26 H         118.6740  154.5233  144.4868 H       1  UNL11       0.0828
     27 H         121.1210  154.7535  144.2180 H       1  UNL11       0.0330
     28 H         120.6285  153.1266  143.7681 H       1  UNL11       0.0330
     29 H         121.8848  152.1540  148.7752 H       1  UNL11       0.0372
     30 H         122.8954  151.5857  147.4488 H       1  UNL11       0.0372
     31 H         122.5420  152.1337  144.9420 H       1  UNL11       0.0815
     32 H         123.1352  153.4994  143.9751 H       1  UNL11       0.0815
     33 H         120.7403  155.8022  148.5542 H       1  UNL11       0.0620
     34 H         118.4793  156.5181  148.0036 H       1  UNL11       0.0652
     35 H         120.9712  149.5858  148.0516 H       1  UNL11       0.0622
     36 H         124.6044  152.4089  146.3535 H       1  UNL11       0.0778
     37 H         124.8680  153.9930  147.1735 H       1  UNL11       0.0778
     38 H         125.0839  153.8532  145.4037 H       1  UNL11       0.0778
     39 H         118.7445  148.7885  147.3117 H       1  UNL11       0.0655
     40 H         114.9358  155.3368  146.7691 H       1  UNL11       0.0660
     41 H         116.1065  155.3891  148.0992 H       1  UNL11       0.0660
     42 H         115.9595  153.9212  147.0734 H       1  UNL11       0.0660
@<TRIPOS>UNITY_ATOM_ATTR
4 1
charge 1
@<TRIPOS>BOND
     1     1     8    1
     2     1    14    1
     3     2    15    1
     4     2    22    1
     5     3    20    1
     6     4     7    1
     7     4    12    1
     8     4    19    1
     9     5     6    1
    10     5     8    1
    11     5     9    1
    12     5    10    1
    13     6     7    1
    14     6    16    2
    15     7    11    1
    16     8    15    1
    17     9    12    1
    18    10    13   ar
    19    10    14   ar
    20    11    13    1
    21    13    18   ar
    22    14    20   ar
    23    15    17    2
    24    16    17    1
    25    18    21   ar
    26    20    21   ar
    27     3    23    1
    28     4    24    1
    29     7    25    1
    30     8    26    1
    31     9    27    1
    32     9    28    1
    33    11    29    1
    34    11    30    1
    35    12    31    1
    36    12    32    1
    37    16    33    1
    38    17    34    1
    39    18    35    1
    40    19    36    1
    41    19    37    1
    42    19    38    1
    43    21    39    1
    44    22    40    1
    45    22    41    1
    46    22    42    1
@<TRIPOS>MOLECULE
5463874
 51 55 0 0 0
SMALL
GASTEIGER

@<TRIPOS>ATOM
      1 O         120.9050  153.5536  144.7106 O.2     1  UNL11      -0.4803
      2 O         121.8465  151.8911  146.6837 O.3     1  UNL11      -0.4578
      3 O         122.1409  155.8889  145.7439 O.2     1  UNL11      -0.4914
      4 O         123.5851  150.4068  146.4957 O.2     1  UNL11      -0.2512
      5 N         116.0842  152.6488  146.2998 N.4     1  UNL11       0.2357
      6 C         118.8830  152.5477  145.5339 C.3     1  UNL11       0.0526
      7 C         118.2400  151.4428  146.3732 C.3     1  UNL11       0.0159
      8 C         120.2328  152.2571  144.8494 C.3     1  UNL11       0.1473
      9 C         117.1672  152.1156  147.2688 C.3     1  UNL11      -0.0132
     10 C         117.8229  153.1005  144.5522 C.3     1  UNL11       0.0012
     11 C         119.3538  153.6696  146.3867 C.3     1  UNL11       0.0117
     12 C         119.2557  150.5891  147.1357 C.3     1  UNL11      -0.0407
     13 C         121.1540  151.2437  145.5925 C.3     1  UNL11       0.1405
     14 C         117.7264  153.2333  148.2082 C.3     1  UNL11       0.0162
     15 C         120.3427  150.0824  146.1784 C.3     1  UNL11      -0.0116
     16 C         116.5833  153.6394  145.2675 C.3     1  UNL11      -0.0309
     17 C         118.8134  154.0693  147.5910 C.3     1  UNL11      -0.0345
     18 C         120.4678  154.2611  145.8150 C.3     1  UNL11       0.1666
     19 C         114.8402  153.1459  146.9896 C.3     1  UNL11      -0.0428
     20 C         119.3992  155.1798  148.1959 C.3     1  UNL11      -0.0544
     21 C         121.0581  155.3709  146.3864 C.3     1  UNL11       0.1618
     22 C         120.4985  155.8354  147.5875 C.3     1  UNL11      -0.0160
     23 C         123.0791  151.4031  146.9899 C.2     1  UNL11       0.3043
     24 C         123.7138  152.2459  148.0525 C.3     1  UNL11       0.0332
     25 C         122.7716  157.0159  146.3380 C.3     1  UNL11       0.0790
     26 H         115.7666  151.8279  145.7664 H       1  UNL11       0.2033
     27 H         117.7312  150.7447  145.6909 H       1  UNL11       0.0365
     28 H         120.0503  151.8655  143.8403 H       1  UNL11       0.0780
     29 H         116.6551  151.3564  147.8720 H       1  UNL11       0.0857
     30 H         117.5198  152.2987  143.8657 H       1  UNL11       0.0327
     31 H         118.2333  153.8994  143.9210 H       1  UNL11       0.0327
     32 H         118.7422  149.7302  147.5845 H       1  UNL11       0.0271
     33 H         119.7100  151.1452  147.9631 H       1  UNL11       0.0271
     34 H         121.8892  150.8761  144.8658 H       1  UNL11       0.0772
     35 H         118.1629  152.7384  149.0855 H       1  UNL11       0.0368
     36 H         116.9261  153.8805  148.5783 H       1  UNL11       0.0368
     37 H         119.8869  149.4999  145.3689 H       1  UNL11       0.0302
     38 H         121.0016  149.4067  146.7356 H       1  UNL11       0.0302
     39 H         116.7726  154.5898  145.7764 H       1  UNL11       0.0815
     40 H         115.7696  153.7908  144.5496 H       1  UNL11       0.0815
     41 H         115.0513  154.1064  147.4642 H       1  UNL11       0.0778
     42 H         114.5343  152.3972  147.7242 H       1  UNL11       0.0778
     43 H         114.0625  153.2601  146.2294 H       1  UNL11       0.0778
     44 H         119.0360  155.5480  149.1541 H       1  UNL11       0.0622
     45 H         120.9175  156.6955  148.1037 H       1  UNL11       0.0655
     46 H         123.7471  153.2894  147.7283 H       1  UNL11       0.0342
     47 H         124.7393  151.9051  148.2208 H       1  UNL11       0.0342
     48 H         123.1511  152.1509  148.9843 H       1  UNL11       0.0342
     49 H         123.6133  157.3035  145.7006 H       1  UNL11       0.0660
     50 H         123.1711  156.7679  147.3269 H       1  UNL11       0.0660
     51 H         122.0865  157.8684  146.3912 H       1  UNL11       0.0660
@<TRIPOS>UNITY_ATOM_ATTR
5 1
charge 1
@<TRIPOS>BOND
     1     1     8    1
     2     1    18    1
     3     2    13    1
     4     2    23    1
     5     3    21    1
     6     3    25    1
     7     4    23    2
     8     5     9    1
     9     5    16    1
    10     5    19    1
    11     6     7    1
    12     6     8    1
    13     6    10    1
    14     6    11    1
    15     7     9    1
    16     7    12    1
    17     8    13    1
    18     9    14    1
    19    10    16    1
    20    11    17   ar
    21    11    18   ar
    22    12    15    1
    23    13    15    1
    24    14    17    1
    25    17    20   ar
    26    18    21   ar
    27    20    22   ar
    28    21    22   ar
    29    23    24    1
    30     5    26    1
    31     7    27    1
    32     8    28    1
    33     9    29    1
    34    10    30    1
    35    10    31    1
    36    12    32    1
    37    12    33    1
    38    13    34    1
    39    14    35    1
    40    14    36    1
    41    15    37    1
    42    15    38    1
    43    16    39    1
    44    16    40    1
    45    19    41    1
    46    19    42    1
    47    19    43    1
    48    20    44    1
    49    22    45    1
    50    24    46    1
    51    24    47    1
    52    24    48    1
    53    25    49    1
    54    25    50    1
    55    25    51    1
@<TRIPOS>MOLECULE
11102868
 38 43 0 0 0
SMALL
GASTEIGER

@<TRIPOS>ATOM
      1 O         120.7671  150.1795  147.6779 O.2     1  UNL11      -0.4732
      2 O         117.7657  152.1270  147.6718 O.3     1  UNL11      -0.3228
      3 O         123.1302  148.7942  148.5623 O.2     1  UNL11      -0.4684
      4 O         117.4523  154.5409  147.6771 O.3     1  UNL11      -0.3226
      5 O         117.3688  152.2246  144.9247 O.3     1  UNL11      -0.2149
      6 O         118.1940  154.6490  143.5809 O.3     1  UNL11      -0.2174
      7 O         119.3504  156.4715  145.4051 O.3     1  UNL11      -0.2173
      8 O         119.1242  156.7716  148.9708 O.co2   1  UNL11      -0.5466
      9 O         117.2087  157.7422  148.2372 O.2     1  UNL11      -0.5466
     10 N         121.1448  154.5845  144.4576 N.4     1  UNL11       0.2565
     11 C         120.7408  152.1141  146.2053 C.3     1  UNL11       0.0758
     12 C         120.8604  153.6214  146.6608 C.3     1  UNL11       0.0790
     13 C         119.9210  151.1946  147.1318 C.3     1  UNL11       0.2014
     14 C         121.7633  154.3807  145.7673 C.3     1  UNL11       0.0627
     15 C         120.5013  152.0453  144.7658 C.3     1  UNL11       0.0691
     16 C         122.1298  151.5554  146.4664 C.2     1  UNL11       0.0146
     17 C         123.0186  153.6193  145.7914 C.3     1  UNL11       0.0814
     18 C         120.7292  153.2833  143.9326 C.3     1  UNL11       0.1042
     19 C         119.0839  151.9414  148.1227 C.3     1  UNL11       0.1795
     20 C         123.3095  152.2649  146.1938 C.2     1  UNL11      -0.0172
     21 C         120.5505  153.8354  148.0274 C.2     1  UNL11      -0.0224
     22 C         122.0647  150.4443  147.2802 C.2     1  UNL11       0.1679
     23 C         119.8103  153.0907  148.6045 C.2     1  UNL11       0.0022
     24 C         124.4948  151.7395  146.6658 C.2     1  UNL11      -0.0011
     25 C         121.7618  155.5561  143.5822 C.3     1  UNL11      -0.0413
     26 C         123.2351  149.8837  147.7418 C.2     1  UNL11       0.1720
     27 C         124.4481  150.5269  147.3930 C.2     1  UNL11       0.0397
     28 C         117.4641  153.3224  146.9833 C.3     1  UNL11       0.2701
     29 C         117.5526  153.3334  145.5173 C.3     1  UNL11       0.2406
     30 C         117.9788  154.5893  144.8334 C.3     1  UNL11       0.2201
     31 C         118.3499  155.7489  145.7130 C.3     1  UNL11       0.2171
     32 C         117.9687  155.7384  147.1324 C.3     1  UNL11       0.1866
     33 C         124.3410  148.1420  148.8533 C.3     1  UNL11       0.2526
     34 C         118.1446  156.8743  148.1473 C.3     1  UNL11       0.0800
     35 H         120.1834  155.0481  144.6605 H       1  UNL11       0.2050
     36 H         122.7110  155.1556  143.2113 H       1  UNL11       0.0778
     37 H         121.9441  156.4867  144.1287 H       1  UNL11       0.0778
     38 H         121.0947  155.7513  142.7367 H       1  UNL11       0.0778
@<TRIPOS>UNITY_ATOM_ATTR
8 1
charge -1
10 1
charge 1
@<TRIPOS>BOND
     1     1    13    1
     2     1    22    1
     3     2    19    1
     4     2    28    1
     5     3    26    1
     6     3    33    1
     7     4    28    1
     8     4    32    1
     9     5    29    1
    10     6    30    1
    11     7    31    1
    12     8    34    1
    13     9    34    2
    14    10    14    1
    15    10    18    1
    16    10    25    1
    17    11    12    1
    18    11    13    1
    19    11    15    1
    20    11    16    1
    21    12    14    1
    22    12    21    1
    23    13    19    1
    24    14    17    1
    25    15    18    1
    26    16    20    2
    27    16    22    1
    28    17    20    1
    29    19    23    1
    30    20    24    1
    31    21    23    2
    32    22    26    2
    33    24    27    2
    34    26    27    1
    35    28    29    1
    36    29    30    1
    37    30    31    1
    38    31    32    1
    39    32    34    1
    40    10    35    1
    41    25    36    1
    42    25    37    1
    43    25    38    1
@<TRIPOS>MOLECULE
5459910
 42 46 0 0 0
SMALL
GASTEIGER

@<TRIPOS>ATOM
      1 O         121.6399  153.7057  147.3989 O.2     1  UNL11      -0.4761
      2 O         122.0008  156.1217  145.8509 O.2     1  UNL11      -0.2887
      3 O         123.4592  151.3818  146.5040 O.2     1  UNL11      -0.4914
      4 N         116.6049  152.6974  146.9643 N.4     1  UNL11       0.2359
      5 C         119.2976  153.7870  146.9156 C.3     1  UNL11       0.0599
      6 C         118.2100  154.3368  145.9881 C.3     1  UNL11       0.0346
      7 C         117.2766  153.1340  145.6387 C.3     1  UNL11      -0.0097
      8 C         118.6553  153.3376  148.2469 C.3     1  UNL11       0.0018
      9 C         120.5545  154.6395  147.1225 C.3     1  UNL11       0.1722
     10 C         119.9799  152.6179  146.2884 C.3     1  UNL11       0.0124
     11 C         118.0081  151.9542  144.9251 C.3     1  UNL11       0.0165
     12 C         117.5688  152.2792  148.0549 C.3     1  UNL11      -0.0309
     13 C         119.4032  151.7049  145.4256 C.3     1  UNL11      -0.0345
     14 C         118.7627  155.0817  144.8039 C.2     1  UNL11      -0.0713
     15 C         121.3187  152.5954  146.6511 C.3     1  UNL11       0.1671
     16 C         120.9380  155.5071  145.9136 C.2     1  UNL11       0.1969
     17 C         119.9909  155.6169  144.7718 C.2     1  UNL11      -0.0189
     18 C         115.5011  151.6847  146.7832 C.3     1  UNL11      -0.0428
     19 C         120.2121  150.6578  144.9937 C.3     1  UNL11      -0.0544
     20 C         122.1374  151.5665  146.2353 C.3     1  UNL11       0.1618
     21 C         121.5563  150.5814  145.4174 C.3     1  UNL11      -0.0160
     22 C         124.1661  152.4899  147.0506 C.3     1  UNL11       0.0790
     23 H         116.1204  153.5332  147.3210 H       1  UNL11       0.2034
     24 H         117.6115  155.0805  146.5351 H       1  UNL11       0.0408
     25 H         116.4483  153.4783  145.0069 H       1  UNL11       0.0860
     26 H         118.2173  154.2133  148.7441 H       1  UNL11       0.0327
     27 H         119.4068  152.9392  148.9408 H       1  UNL11       0.0327
     28 H         120.4422  155.3127  147.9808 H       1  UNL11       0.0827
     29 H         118.0935  152.2155  143.8620 H       1  UNL11       0.0368
     30 H         117.4245  151.0307  144.9760 H       1  UNL11       0.0368
     31 H         117.9794  151.3010  147.7858 H       1  UNL11       0.0815
     32 H         116.9838  152.1664  148.9742 H       1  UNL11       0.0815
     33 H         118.1141  155.2442  143.9436 H       1  UNL11       0.0578
     34 H         120.3557  156.1791  143.9166 H       1  UNL11       0.0650
     35 H         115.9395  150.7121  146.5508 H       1  UNL11       0.0778
     36 H         114.8491  152.0311  145.9776 H       1  UNL11       0.0778
     37 H         114.9401  151.6354  147.7204 H       1  UNL11       0.0778
     38 H         119.8355  149.9008  144.3080 H       1  UNL11       0.0622
     39 H         122.1777  149.7581  145.0651 H       1  UNL11       0.0655
     40 H         125.2290  152.2295  147.0657 H       1  UNL11       0.0660
     41 H         123.8588  152.6785  148.0838 H       1  UNL11       0.0660
     42 H         124.0559  153.3833  146.4267 H       1  UNL11       0.0660
@<TRIPOS>UNITY_ATOM_ATTR
4 1
charge 1
@<TRIPOS>BOND
     1     1     9    1
     2     1    15    1
     3     2    16    2
     4     3    20    1
     5     3    22    1
     6     4     7    1
     7     4    12    1
     8     4    18    1
     9     5     6    1
    10     5     8    1
    11     5     9    1
    12     5    10    1
    13     6     7    1
    14     6    14    1
    15     7    11    1
    16     8    12    1
    17     9    16    1
    18    10    13   ar
    19    10    15   ar
    20    11    13    1
    21    13    19   ar
    22    14    17    2
    23    15    20   ar
    24    16    17    1
    25    19    21   ar
    26    20    21   ar
    27     4    23    1
    28     6    24    1
    29     7    25    1
    30     8    26    1
    31     8    27    1
    32     9    28    1
    33    11    29    1
    34    11    30    1
    35    12    31    1
    36    12    32    1
    37    14    33    1
    38    17    34    1
    39    18    35    1
    40    18    36    1
    41    18    37    1
    42    19    38    1
    43    21    39    1
    44    22    40    1
    45    22    41    1
    46    22    42    1
@<TRIPOS>MOLECULE
545863
 52 56 0 0 0
SMALL
GASTEIGER

@<TRIPOS>ATOM
      1 O         118.7116  153.1103  147.4831 O.2     1  UNL11      -0.4799
      2 O         117.5699  151.8040  145.4725 O.3     1  UNL11      -0.4534
      3 O         117.7244  155.7153  147.0477 O.2     1  UNL11      -0.4914
      4 O         116.6000  150.7612  147.2666 O.2     1  UNL11      -0.2508
      5 N         123.8242  152.3768  147.1119 N.4     1  UNL11       0.2359
      6 C         120.9236  152.3002  146.9758 C.3     1  UNL11       0.0564
      7 C         121.7796  151.5842  145.9227 C.3     1  UNL11       0.0340
      8 C         123.0812  152.4297  145.7548 C.3     1  UNL11      -0.0097
      9 C         119.4405  151.8886  147.1127 C.3     1  UNL11       0.1512
     10 C         121.6511  152.2990  148.3373 C.3     1  UNL11       0.0015
     11 C         120.6962  153.7125  146.5441 C.3     1  UNL11       0.0121
     12 C         122.8254  153.8924  145.2731 C.3     1  UNL11       0.0165
     13 C         123.0372  152.9352  148.2768 C.3     1  UNL11      -0.0309
     14 C         121.5635  154.5034  145.8156 C.3     1  UNL11      -0.0345
     15 C         118.8165  151.2021  145.8523 C.3     1  UNL11       0.1587
     16 C         121.0289  151.3391  144.6416 C.2     1  UNL11      -0.0751
     17 C         119.4305  154.1268  146.9050 C.3     1  UNL11       0.1666
     18 C         119.6962  151.1846  144.6242 C.2     1  UNL11      -0.0438
     19 C         125.2226  152.9355  147.0651 C.3     1  UNL11      -0.0428
     20 C         121.1434  155.8032  145.5330 C.3     1  UNL11      -0.0544
     21 C         118.9875  155.4086  146.6398 C.3     1  UNL11       0.1618
     22 C         119.8726  156.2563  145.9582 C.3     1  UNL11      -0.0160
     23 C         116.5397  151.5454  146.3287 C.2     1  UNL11       0.3075
     24 C         115.3206  152.3390  145.9332 C.3     1  UNL11       0.0421
     25 C         117.2205  156.9956  146.6901 C.3     1  UNL11       0.0790
     26 C         114.5368  152.7831  147.1546 C.3     1  UNL11      -0.0552
     27 H         123.9575  151.3764  147.3156 H       1  UNL11       0.2034
     28 H         122.0640  150.5897  146.2963 H       1  UNL11       0.0408
     29 H         123.7573  151.9324  145.0482 H       1  UNL11       0.0860
     30 H         119.3206  151.1951  147.9552 H       1  UNL11       0.0783
     31 H         121.7507  151.2616  148.6838 H       1  UNL11       0.0327
     32 H         121.0642  152.8212  149.1041 H       1  UNL11       0.0327
     33 H         122.7218  153.8644  144.1803 H       1  UNL11       0.0368
     34 H         123.6761  154.5438  145.4924 H       1  UNL11       0.0368
     35 H         122.9966  154.0235  148.1676 H       1  UNL11       0.0815
     36 H         123.6002  152.7012  149.1870 H       1  UNL11       0.0815
     37 H         118.6430  150.1407  146.0818 H       1  UNL11       0.0817
     38 H         121.5800  151.2425  143.7076 H       1  UNL11       0.0575
     39 H         119.1960  150.9740  143.6796 H       1  UNL11       0.0607
     40 H         125.1739  154.0242  146.9987 H       1  UNL11       0.0778
     41 H         125.7335  152.5059  146.2000 H       1  UNL11       0.0778
     42 H         125.7313  152.6329  147.9846 H       1  UNL11       0.0778
     43 H         121.7729  156.4784  144.9555 H       1  UNL11       0.0622
     44 H         119.5919  157.2760  145.7079 H       1  UNL11       0.0655
     45 H         114.7023  151.7188  145.2770 H       1  UNL11       0.0375
     46 H         115.6333  153.2284  145.3749 H       1  UNL11       0.0375
     47 H         116.1921  157.0651  147.0572 H       1  UNL11       0.0660
     48 H         117.1954  157.1208  145.6024 H       1  UNL11       0.0660
     49 H         117.8001  157.7932  147.1661 H       1  UNL11       0.0660
     50 H         114.1716  151.9226  147.7249 H       1  UNL11       0.0235
     51 H         113.6737  153.3859  146.8563 H       1  UNL11       0.0235
     52 H         115.1625  153.3848  147.8227 H       1  UNL11       0.0235
@<TRIPOS>UNITY_ATOM_ATTR
5 1
charge 1
@<TRIPOS>BOND
     1     1     9    1
     2     1    17    1
     3     2    15    1
     4     2    23    1
     5     3    21    1
     6     3    25    1
     7     4    23    2
     8     5     8    1
     9     5    13    1
    10     5    19    1
    11     6     7    1
    12     6     9    1
    13     6    10    1
    14     6    11    1
    15     7     8    1
    16     7    16    1
    17     8    12    1
    18     9    15    1
    19    10    13    1
    20    11    14   ar
    21    11    17   ar
    22    12    14    1
    23    14    20   ar
    24    15    18    1
    25    16    18    2
    26    17    21   ar
    27    20    22   ar
    28    21    22   ar
    29    23    24    1
    30    24    26    1
    31     5    27    1
    32     7    28    1
    33     8    29    1
    34     9    30    1
    35    10    31    1
    36    10    32    1
    37    12    33    1
    38    12    34    1
    39    13    35    1
    40    13    36    1
    41    15    37    1
    42    16    38    1
    43    18    39    1
    44    19    40    1
    45    19    41    1
    46    19    42    1
    47    20    43    1
    48    22    44    1
    49    24    45    1
    50    24    46    1
    51    25    47    1
    52    25    48    1
    53    25    49    1
    54    26    50    1
    55    26    51    1
    56    26    52    1
@<TRIPOS>MOLECULE
9926820
 43 47 0 0 0
SMALL
GASTEIGER

@<TRIPOS>ATOM
      1 O         118.1632  153.7953  145.1012 O.2     1  UNL11      -0.4760
      2 O         122.5334  154.8439  146.1142 O.3     1  UNL11      -0.3779
      3 O         117.9856  156.2730  146.5740 O.2     1  UNL11      -0.2887
      4 O         116.0803  151.7897  145.7245 O.2     1  UNL11      -0.4914
      5 N         123.0039  152.2334  145.9531 N.4     1  UNL11       0.2378
      6 C         120.4626  153.6030  145.7663 C.3     1  UNL11       0.0860
      7 C         121.5266  154.0500  146.7814 C.3     1  UNL11       0.1406
      8 C         122.2660  152.7324  147.2269 C.3     1  UNL11       0.0170
      9 C         121.1311  153.0281  144.4924 C.3     1  UNL11       0.0043
     10 C         119.3370  154.5951  145.4420 C.3     1  UNL11       0.1747
     11 C         119.5953  152.5431  146.3573 C.3     1  UNL11       0.0149
     12 C         121.3550  151.6446  147.8617 C.3     1  UNL11       0.0190
     13 C         122.1025  151.8830  144.7936 C.3     1  UNL11      -0.0307
     14 C         119.9781  151.5753  147.2656 C.3     1  UNL11      -0.0343
     15 C         120.9859  154.8954  147.8926 C.2     1  UNL11      -0.0431
     16 C         118.3048  152.6725  145.8809 C.3     1  UNL11       0.1672
     17 C         118.9682  155.5362  146.6022 C.2     1  UNL11       0.1970
     18 C         119.8310  155.5704  147.8146 C.2     1  UNL11      -0.0164
     19 C         124.0523  151.1942  146.2096 C.3     1  UNL11      -0.0427
     20 C         119.0117  150.6364  147.6297 C.3     1  UNL11      -0.0544
     21 C         117.3436  151.7520  146.2298 C.3     1  UNL11       0.1618
     22 C         117.7095  150.7094  147.0896 C.3     1  UNL11      -0.0160
     23 C         115.2777  152.7216  146.4512 C.3     1  UNL11       0.0790
     24 H         122.2871  155.7898  146.1687 H       1  UNL11       0.2109
     25 H         123.5109  153.0866  145.6501 H       1  UNL11       0.2035
     26 H         123.0773  152.9831  147.9223 H       1  UNL11       0.0886
     27 H         121.6727  153.8290  143.9721 H       1  UNL11       0.0328
     28 H         120.3834  152.6647  143.7753 H       1  UNL11       0.0328
     29 H         119.5959  155.2257  144.5831 H       1  UNL11       0.0827
     30 H         121.2306  151.8962  148.9230 H       1  UNL11       0.0369
     31 H         121.8275  150.6586  147.8193 H       1  UNL11       0.0369
     32 H         121.5849  150.9512  145.0424 H       1  UNL11       0.0815
     33 H         122.7464  151.6986  143.9266 H       1  UNL11       0.0815
     34 H         121.5841  155.0019  148.7966 H       1  UNL11       0.0604
     35 H         119.4721  156.1999  148.6246 H       1  UNL11       0.0651
     36 H         123.5636  150.2476  146.4502 H       1  UNL11       0.0778
     37 H         124.6798  151.5353  147.0366 H       1  UNL11       0.0778
     38 H         124.6553  151.0945  145.3032 H       1  UNL11       0.0778
     39 H         119.2404  149.8421  148.3384 H       1  UNL11       0.0622
     40 H         116.9675  149.9622  147.3658 H       1  UNL11       0.0655
     41 H         114.2846  152.7377  145.9924 H       1  UNL11       0.0660
     42 H         115.6890  153.7356  146.4070 H       1  UNL11       0.0660
     43 H         115.1640  152.4024  147.4934 H       1  UNL11       0.0660
@<TRIPOS>UNITY_ATOM_ATTR
5 1
charge 1
@<TRIPOS>BOND
     1     1    10    1
     2     1    16    1
     3     2     7    1
     4     3    17    2
     5     4    21    1
     6     4    23    1
     7     5     8    1
     8     5    13    1
     9     5    19    1
    10     6     7    1
    11     6     9    1
    12     6    10    1
    13     6    11    1
    14     7     8    1
    15     7    15    1
    16     8    12    1
    17     9    13    1
    18    10    17    1
    19    11    14   ar
    20    11    16   ar
    21    12    14    1
    22    14    20   ar
    23    15    18    2
    24    16    21   ar
    25    17    18    1
    26    20    22   ar
    27    21    22   ar
    28     2    24    1
    29     5    25    1
    30     8    26    1
    31     9    27    1
    32     9    28    1
    33    10    29    1
    34    12    30    1
    35    12    31    1
    36    13    32    1
    37    13    33    1
    38    15    34    1
    39    18    35    1
    40    19    36    1
    41    19    37    1
    42    19    38    1
    43    20    39    1
    44    22    40    1
    45    23    41    1
    46    23    42    1
    47    23    43    1
@<TRIPOS>MOLECULE
5464304
 57 62 0 0 0
SMALL
GASTEIGER

@<TRIPOS>ATOM
      1 O         119.3494  153.9743  144.3726 O.2     1  UNL11      -0.4803
      2 O         121.1615  152.2548  145.5608 O.3     1  UNL11      -0.4541
      3 O         120.4381  156.4132  145.3299 O.2     1  UNL11      -0.4914
      4 O         122.7893  150.8983  144.6776 O.2     1  UNL11      -0.2449
      5 N         115.5286  151.9955  147.2253 N.4     1  UNL11       0.2357
      6 N         125.4755  152.4004  147.5111 N.pl3   1  UNL11      -0.2624
      7 C         117.8839  152.5149  145.6033 C.3     1  UNL11       0.0526
      8 C         117.7227  151.2202  146.3994 C.3     1  UNL11       0.0159
      9 C         118.9437  152.5695  144.4847 C.3     1  UNL11       0.1473
     10 C         116.9415  151.5690  147.6923 C.3     1  UNL11      -0.0132
     11 C         116.4842  152.9667  145.1198 C.3     1  UNL11       0.0012
     12 C         118.4542  153.5996  146.4424 C.3     1  UNL11       0.0117
     13 C         119.0442  150.4882  146.6307 C.3     1  UNL11      -0.0407
     14 C         120.1836  151.6458  144.6849 C.3     1  UNL11       0.1408
     15 C         117.6260  152.6569  148.5816 C.3     1  UNL11       0.0162
     16 C         119.7676  150.2969  145.2916 C.3     1  UNL11      -0.0116
     17 C         115.4991  153.1730  146.2720 C.3     1  UNL11      -0.0309
     18 C         118.2920  153.7575  147.8029 C.3     1  UNL11      -0.0345
     19 C         119.1987  154.4611  145.6564 C.3     1  UNL11       0.1666
     20 C         114.5405  152.1666  148.3501 C.3     1  UNL11      -0.0428
     21 C         118.8500  154.9034  148.3662 C.3     1  UNL11      -0.0544
     22 C         119.7386  155.6173  146.1846 C.3     1  UNL11       0.1618
     23 C         119.5449  155.8367  147.5583 C.3     1  UNL11      -0.0160
     24 C         122.4340  151.7965  145.4231 C.2     1  UNL11       0.3410
     25 C         123.3431  152.4733  146.3674 C.3     1  UNL11       0.0770
     26 C         120.9894  157.6122  145.8586 C.3     1  UNL11       0.0790
     27 C         123.0443  153.6839  146.9941 C.3     1  UNL11      -0.0449
     28 C         124.5671  151.8811  146.6484 C.3     1  UNL11       0.0415
     29 C         123.9664  154.2458  147.8754 C.3     1  UNL11      -0.0428
     30 C         125.1565  153.5724  148.1013 C.3     1  UNL11       0.0276
     31 H         115.1648  151.1953  146.6898 H       1  UNL11       0.2033
     32 H         117.1092  150.5250  145.8057 H       1  UNL11       0.0365
     33 H         118.4734  152.2852  143.5342 H       1  UNL11       0.0780
     34 H         116.7795  150.6621  148.2870 H       1  UNL11       0.0857
     35 H         116.0808  152.2074  144.4365 H       1  UNL11       0.0327
     36 H         116.5375  153.8969  144.5392 H       1  UNL11       0.0327
     37 H         118.8417  149.5062  147.0748 H       1  UNL11       0.0271
     38 H         119.6867  151.0242  147.3377 H       1  UNL11       0.0271
     39 H         120.6426  151.5015  143.6983 H       1  UNL11       0.0772
     40 H         118.4106  152.1597  149.1668 H       1  UNL11       0.0368
     41 H         116.9213  153.0846  149.3004 H       1  UNL11       0.0368
     42 H         119.1204  149.7580  144.5891 H       1  UNL11       0.0302
     43 H         120.6458  149.6665  145.4676 H       1  UNL11       0.0302
     44 H         115.7124  154.0786  146.8485 H       1  UNL11       0.0815
     45 H         114.4766  153.2459  145.8853 H       1  UNL11       0.0815
     46 H         114.7656  153.0890  148.8894 H       1  UNL11       0.0778
     47 H         114.6133  151.2946  149.0046 H       1  UNL11       0.0778
     48 H         113.5413  152.2179  147.9090 H       1  UNL11       0.0778
     49 H         118.7722  155.0919  149.4359 H       1  UNL11       0.0622
     50 H         119.9556  156.7161  148.0480 H       1  UNL11       0.0655
     51 H         121.4939  158.1376  145.0422 H       1  UNL11       0.0660
     52 H         121.7372  157.3945  146.6283 H       1  UNL11       0.0660
     53 H         120.2046  158.2706  146.2454 H       1  UNL11       0.0660
     54 H         122.1139  154.2011  146.7912 H       1  UNL11       0.0627
     55 H         124.8658  150.9438  146.1843 H       1  UNL11       0.0838
     56 H         123.7661  155.1903  148.3692 H       1  UNL11       0.0633
     57 H         125.9084  153.9699  148.7780 H       1  UNL11       0.0829
@<TRIPOS>UNITY_ATOM_ATTR
5 1
charge 1
@<TRIPOS>BOND
     1     1     9    1
     2     1    19    1
     3     2    14    1
     4     2    24    1
     5     3    22    1
     6     3    26    1
     7     4    24    2
     8     5    10    1
     9     5    17    1
    10     5    20    1
    11     6    28   ar
    12     6    30   ar
    13     7     8    1
    14     7     9    1
    15     7    11    1
    16     7    12    1
    17     8    10    1
    18     8    13    1
    19     9    14    1
    20    10    15    1
    21    11    17    1
    22    12    18   ar
    23    12    19   ar
    24    13    16    1
    25    14    16    1
    26    15    18    1
    27    18    21   ar
    28    19    22   ar
    29    21    23   ar
    30    22    23   ar
    31    24    25    1
    32    25    27   ar
    33    25    28   ar
    34    27    29   ar
    35    29    30   ar
    36     5    31    1
    37     8    32    1
    38     9    33    1
    39    10    34    1
    40    11    35    1
    41    11    36    1
    42    13    37    1
    43    13    38    1
    44    14    39    1
    45    15    40    1
    46    15    41    1
    47    16    42    1
    48    16    43    1
    49    17    44    1
    50    17    45    1
    51    20    46    1
    52    20    47    1
    53    20    48    1
    54    21    49    1
    55    23    50    1
    56    26    51    1
    57    26    52    1
    58    26    53    1
    59    27    54    1
    60    28    55    1
    61    29    56    1
    62    30    57    1
@<TRIPOS>MOLECULE
71314936
 44 48 0 0 0
SMALL
GASTEIGER

@<TRIPOS>ATOM
      1 O         121.5557  154.0962  147.6854 O.2     1  UNL111     -0.4811
      2 O         115.7754  153.2751  147.1311 O.co2   1  UNL111     -0.7753
      3 O         121.9665  156.1042  146.0601 O.3     1  UNL111     -0.3841
      4 O         123.7099  152.3698  147.1195 O.2     1  UNL111     -0.4914
      5 N         116.6971  152.3112  146.7628 N.3     1  UNL111      0.2178
      6 C         119.2398  153.7793  147.0270 C.3     1  UNL111      0.0553
      7 C         118.2129  154.1525  145.9487 C.3     1  UNL111      0.0338
      8 C         117.5007  152.8220  145.5438 C.3     1  UNL111     -0.0105
      9 C         120.3090  154.8288  147.3933 C.3     1  UNL111      0.1402
     10 C         118.5199  153.2197  148.2722 C.3     1  UNL111      0.0014
     11 C         120.1665  152.7408  146.4829 C.3     1  UNL111      0.0120
     12 C         117.6077  152.0370  147.9425 C.3     1  UNL111     -0.0317
     13 C         118.4829  151.7771  144.9276 C.3     1  UNL111      0.0164
     14 C         119.8470  151.7590  145.5647 C.3     1  UNL111     -0.0345
     15 C         120.5731  155.9125  146.3045 C.3     1  UNL111      0.1110
     16 C         118.8346  154.9106  144.7999 C.2     1  UNL111     -0.0761
     17 C         121.4504  152.9411  146.9452 C.3     1  UNL111      0.1666
     18 C         119.9079  155.6966  144.9755 C.2     1  UNL111     -0.0558
     19 C         115.9087  151.0727  146.4363 C.3     1  UNL111     -0.0436
     20 C         120.8675  150.8825  145.1968 C.3     1  UNL111     -0.0544
     21 C         122.4814  152.0865  146.6004 C.3     1  UNL111      0.1618
     22 C         122.1692  151.0333  145.7278 C.3     1  UNL111     -0.0160
     23 C         124.7818  151.5169  146.7419 C.3     1  UNL111      0.0790
     24 H         122.4309  155.3781  146.5213 H       1  UNL111      0.2104
     25 H         117.4729  154.8401  146.3801 H       1  UNL111      0.0408
     26 H         116.7194  153.0383  144.8021 H       1  UNL111      0.0859
     27 H         120.0378  155.3477  148.3215 H       1  UNL111      0.0772
     28 H         117.9184  154.0210  148.7210 H       1  UNL111      0.0327
     29 H         119.2364  152.9043  149.0415 H       1  UNL111      0.0327
     30 H         118.1799  151.1349  147.7043 H       1  UNL111      0.0814
     31 H         116.9517  151.8104  148.7914 H       1  UNL111      0.0814
     32 H         118.6296  152.0455  143.8729 H       1  UNL111      0.0368
     33 H         118.0670  150.7672  144.9367 H       1  UNL111      0.0368
     34 H         120.1964  156.8701  146.6848 H       1  UNL111      0.0675
     35 H         118.3606  154.8599  143.8228 H       1  UNL111      0.0575
     36 H         120.3011  156.2651  144.1359 H       1  UNL111      0.0596
     37 H         115.3404  151.2709  145.5240 H       1  UNL111      0.0777
     38 H         115.2312  150.8865  147.2753 H       1  UNL111      0.0777
     39 H         116.5910  150.2306  146.3142 H       1  UNL111      0.0777
     40 H         120.6803  150.0921  144.4728 H       1  UNL111      0.0622
     41 H         122.9280  150.3278  145.4029 H       1  UNL111      0.0655
     42 H         125.6882  151.8791  147.2366 H       1  UNL111      0.0660
     43 H         124.9546  151.5545  145.6612 H       1  UNL111      0.0660
     44 H         124.6064  150.4898  147.0786 H       1  UNL111      0.0660
@<TRIPOS>UNITY_ATOM_ATTR
2 1
charge -1
5 1
charge 1
@<TRIPOS>BOND
     1     1     9    1
     2     1    17    1
     3     2     5    1
     4     3    15    1
     5     4    21    1
     6     4    23    1
     7     5     8    1
     8     5    12    1
     9     5    19    1
    10     6     7    1
    11     6     9    1
    12     6    10    1
    13     6    11    1
    14     7     8    1
    15     7    16    1
    16     8    13    1
    17     9    15    1
    18    10    12    1
    19    11    14   ar
    20    11    17   ar
    21    13    14    1
    22    14    20   ar
    23    15    18    1
    24    16    18    2
    25    17    21   ar
    26    20    22   ar
    27    21    22   ar
    28     3    24    1
    29     7    25    1
    30     8    26    1
    31     9    27    1
    32    10    28    1
    33    10    29    1
    34    12    30    1
    35    12    31    1
    36    13    32    1
    37    13    33    1
    38    15    34    1
    39    16    35    1
    40    18    36    1
    41    19    37    1
    42    19    38    1
    43    19    39    1
    44    20    40    1
    45    22    41    1
    46    23    42    1
    47    23    43    1
    48    23    44    1
@<TRIPOS>MOLECULE
5492803
 45 49 0 0 0
SMALL
GASTEIGER

@<TRIPOS>ATOM
      1 O         121.5477  154.1583  147.6057 O.3     1  UNL11      -0.4840
      2 O         123.6643  152.1667  147.0361 O.3     1  UNL11      -0.4914
      3 N         116.7404  152.3855  146.9210 N.4     1  UNL11       0.2357
      4 C         119.2350  153.8660  146.9995 C.3     1  UNL11       0.0491
      5 C         118.1268  154.2165  146.0046 C.3     1  UNL11       0.0157
      6 C         117.4160  152.8907  145.6249 C.3     1  UNL11      -0.0132
      7 C         120.3358  154.9111  147.2660 C.3     1  UNL11       0.1107
      8 C         118.5967  153.3368  148.3033 C.3     1  UNL11       0.0011
      9 C         120.1203  152.8113  146.4366 C.ar    1  UNL11       0.0116
     10 C         118.6350  155.0195  144.8027 C.3     1  UNL11      -0.0440
     11 C         120.6540  155.8314  146.0719 C.3     1  UNL11      -0.0149
     12 C         118.3594  151.8171  144.9922 C.3     1  UNL11       0.0162
     13 C         117.6916  152.1276  148.0710 C.3     1  UNL11      -0.0309
     14 C         119.4176  156.2425  145.2809 C.3     1  UNL11      -0.0492
     15 C         119.7467  151.7966  145.5740 C.ar    1  UNL11      -0.0345
     16 C         121.4148  152.9921  146.8863 C.ar    1  UNL11       0.1664
     17 C         115.7993  151.2284  146.7077 C.3     1  UNL11      -0.0428
     18 C         120.7293  150.8665  145.2330 C.ar    1  UNL11      -0.0544
     19 C         122.3915  152.0794  146.5593 C.ar    1  UNL11       0.1618
     20 C         122.0372  150.9920  145.7499 C.ar    1  UNL11      -0.0160
     21 C         124.4241  153.0986  146.2664 C.3     1  UNL11       0.0790
     22 H         116.1308  153.1547  147.2306 H       1  UNL11       0.2033
     23 H         117.3991  154.8682  146.5115 H       1  UNL11       0.0365
     24 H         116.5869  153.0962  144.9371 H       1  UNL11       0.0857
     25 H         120.0729  155.5335  148.1303 H       1  UNL11       0.0742
     26 H         118.0062  154.1412  148.7619 H       1  UNL11       0.0327
     27 H         119.3598  153.0616  149.0429 H       1  UNL11       0.0327
     28 H         117.7822  155.3473  144.1964 H       1  UNL11       0.0270
     29 H         119.2699  154.4114  144.1485 H       1  UNL11       0.0270
     30 H         121.3679  155.3484  145.3920 H       1  UNL11       0.0301
     31 H         121.1744  156.7241  146.4404 H       1  UNL11       0.0301
     32 H         118.4643  152.0579  143.9262 H       1  UNL11       0.0368
     33 H         117.9206  150.8167  145.0467 H       1  UNL11       0.0368
     34 H         118.2557  151.2173  147.8452 H       1  UNL11       0.0815
     35 H         117.0776  151.9398  148.9588 H       1  UNL11       0.0815
     36 H         118.7751  156.8798  145.9004 H       1  UNL11       0.0267
     37 H         119.7230  156.8414  144.4154 H       1  UNL11       0.0267
     38 H         116.3787  150.3226  146.5183 H       1  UNL11       0.0778
     39 H         115.1483  151.4685  145.8634 H       1  UNL11       0.0778
     40 H         115.2018  151.1148  147.6164 H       1  UNL11       0.0778
     41 H         120.5089  150.0406  144.5589 H       1  UNL11       0.0622
     42 H         122.7925  150.2525  145.4915 H       1  UNL11       0.0655
     43 H         125.4310  153.1426  146.6920 H       1  UNL11       0.0660
     44 H         123.9952  154.1054  146.3070 H       1  UNL11       0.0660
     45 H         124.5104  152.7638  145.2265 H       1  UNL11       0.0660
@<TRIPOS>UNITY_ATOM_ATTR
3 1
charge 1
@<TRIPOS>BOND
     1     1     7    1
     2     1    16    1
     3     2    19    1
     4     2    21    1
     5     3     6    1
     6     3    13    1
     7     3    17    1
     8     4     5    1
     9     4     7    1
    10     4     8    1
    11     4     9    1
    12     5     6    1
    13     5    10    1
    14     6    12    1
    15     7    11    1
    16     8    13    1
    17     9    15   ar
    18     9    16   ar
    19    10    14    1
    20    11    14    1
    21    12    15    1
    22    15    18   ar
    23    16    19   ar
    24    18    20   ar
    25    19    20   ar
    26     3    22    1
    27     5    23    1
    28     6    24    1
    29     7    25    1
    30     8    26    1
    31     8    27    1
    32    10    28    1
    33    10    29    1
    34    11    30    1
    35    11    31    1
    36    12    32    1
    37    12    33    1
    38    13    34    1
    39    13    35    1
    40    14    36    1
    41    14    37    1
    42    17    38    1
    43    17    39    1
    44    17    40    1
    45    18    41    1
    46    20    42    1
    47    21    43    1
    48    21    44    1
    49    21    45    1
@<TRIPOS>MOLECULE
520915
 51 55 0 0 0
SMALL
GASTEIGER

@<TRIPOS>ATOM
      1 O         120.2202  151.3339  145.4064 O.2     1  UNL11      -0.4803
      2 O         116.8444  152.5481  146.1814 O.3     1  UNL11      -0.4578
      3 O         122.8304  149.9462  146.1556 O.2     1  UNL11      -0.4914
      4 O         115.6317  150.8505  147.1431 O.2     1  UNL11      -0.2512
      5 N         120.1846  156.5456  146.0584 N.4     1  UNL11       0.2357
      6 C         119.7851  153.6753  145.8780 C.3     1  UNL11       0.0526
      7 C         119.1026  154.5082  146.9678 C.3     1  UNL11       0.0159
      8 C         119.1467  152.3182  145.5180 C.3     1  UNL11       0.1473
      9 C         120.0672  155.6760  147.3258 C.3     1  UNL11      -0.0132
     10 C         120.0210  154.5279  144.6119 C.3     1  UNL11       0.0012
     11 C         121.0818  153.1864  146.4186 C.3     1  UNL11       0.0117
     12 C         118.6689  153.6956  148.2073 C.3     1  UNL11      -0.0407
     13 C         118.0704  151.8558  146.5197 C.3     1  UNL11       0.1405
     14 C         121.4695  155.2066  147.8345 C.3     1  UNL11       0.0162
     15 C         118.4509  152.1961  147.9630 C.3     1  UNL11      -0.0116
     16 C         120.7821  155.8229  144.8748 C.3     1  UNL11      -0.0309
     17 C         121.9308  153.8955  147.2533 C.3     1  UNL11      -0.0345
     18 C         121.2966  151.8671  146.0661 C.3     1  UNL11       0.1666
     19 C         120.8449  157.8802  146.2940 C.3     1  UNL11      -0.0428
     20 C         123.1289  153.2799  147.6084 C.3     1  UNL11      -0.0544
     21 C         122.4667  151.2300  146.4319 C.3     1  UNL11       0.1618
     22 C         123.4033  151.9696  147.1713 C.3     1  UNL11      -0.0160
     23 C         115.6920  151.9087  146.5354 C.2     1  UNL11       0.3043
     24 C         114.5041  152.7116  146.1042 C.3     1  UNL11       0.0332
     25 C         121.7622  149.0126  146.0328 C.3     1  UNL11       0.0790
     26 H         119.2196  156.7847  145.7917 H       1  UNL11       0.2033
     27 H         118.1815  154.9349  146.5441 H       1  UNL11       0.0365
     28 H         118.6798  152.3719  144.5255 H       1  UNL11       0.0780
     29 H         119.6024  156.3273  148.0757 H       1  UNL11       0.0857
     30 H         119.0461  154.7804  144.1728 H       1  UNL11       0.0327
     31 H         120.5629  153.9568  143.8466 H       1  UNL11       0.0327
     32 H         117.7318  154.1312  148.5792 H       1  UNL11       0.0271
     33 H         119.3787  153.8082  149.0347 H       1  UNL11       0.0271
     34 H         117.9383  150.7714  146.4135 H       1  UNL11       0.0772
     35 H         121.3918  155.0630  148.9202 H       1  UNL11       0.0368
     36 H         122.2371  155.9690  147.6751 H       1  UNL11       0.0368
     37 H         117.6715  151.8503  148.6524 H       1  UNL11       0.0302
     38 H         119.3592  151.6471  148.2385 H       1  UNL11       0.0302
     39 H         121.8440  155.6536  145.0780 H       1  UNL11       0.0815
     40 H         120.6988  156.4926  144.0117 H       1  UNL11       0.0815
     41 H         121.9158  157.7324  146.4467 H       1  UNL11       0.0778
     42 H         120.3790  158.3423  147.1680 H       1  UNL11       0.0778
     43 H         120.6683  158.4982  145.4095 H       1  UNL11       0.0778
     44 H         123.8494  153.7798  148.2529 H       1  UNL11       0.0622
     45 H         124.3391  151.4944  147.4634 H       1  UNL11       0.0655
     46 H         114.5853  152.9559  145.0417 H       1  UNL11       0.0342
     47 H         114.4382  153.6227  146.7035 H       1  UNL11       0.0342
     48 H         113.5950  152.1212  146.2501 H       1  UNL11       0.0342
     49 H         122.1890  148.0085  146.1202 H       1  UNL11       0.0660
     50 H         121.2908  149.0868  145.0487 H       1  UNL11       0.0660
     51 H         121.0274  149.1285  146.8377 H       1  UNL11       0.0660
@<TRIPOS>UNITY_ATOM_ATTR
5 1
charge 1
@<TRIPOS>BOND
     1     1     8    1
     2     1    18    1
     3     2    13    1
     4     2    23    1
     5     3    21    1
     6     3    25    1
     7     4    23    2
     8     5     9    1
     9     5    16    1
    10     5    19    1
    11     6     7    1
    12     6     8    1
    13     6    10    1
    14     6    11    1
    15     7     9    1
    16     7    12    1
    17     8    13    1
    18     9    14    1
    19    10    16    1
    20    11    17   ar
    21    11    18   ar
    22    12    15    1
    23    13    15    1
    24    14    17    1
    25    17    20   ar
    26    18    21   ar
    27    20    22   ar
    28    21    22   ar
    29    23    24    1
    30     5    26    1
    31     7    27    1
    32     8    28    1
    33     9    29    1
    34    10    30    1
    35    10    31    1
    36    12    32    1
    37    12    33    1
    38    13    34    1
    39    14    35    1
    40    14    36    1
    41    15    37    1
    42    15    38    1
    43    16    39    1
    44    16    40    1
    45    19    41    1
    46    19    42    1
    47    19    43    1
    48    20    44    1
    49    22    45    1
    50    24    46    1
    51    24    47    1
    52    24    48    1
    53    25    49    1
    54    25    50    1
    55    25    51    1
@<TRIPOS>MOLECULE
5462437
 44 48 0 0 0
SMALL
GASTEIGER

@<TRIPOS>ATOM
      1 O         118.1276  153.9605  145.2907 O.3     1  UNL11      -0.4811
      2 O         118.8758  155.4270  147.5943 O.3     1  UNL11      -0.3878
      3 O         115.8516  152.1486  146.2975 O.3     1  UNL11      -0.4914
      4 N         122.9343  151.9371  145.9025 N.4     1  UNL11       0.2386
      5 C         120.4634  153.4646  145.7269 C.3     1  UNL11       0.0697
      6 C         119.4580  154.5703  145.3520 C.3     1  UNL11       0.1400
      7 C         121.5808  153.8145  146.6683 C.2     1  UNL11      -0.0113
      8 C         122.2859  152.5617  147.1358 C.3     1  UNL11       0.0057
      9 C         121.0624  152.7875  144.4766 C.3     1  UNL11       0.0047
     10 C         119.5241  152.5451  146.4165 C.ar    1  UNL11       0.0155
     11 C         119.4773  155.7616  146.3377 C.3     1  UNL11       0.0965
     12 C         121.3080  151.5731  147.8689 C.3     1  UNL11       0.0200
     13 C         121.9486  151.5869  144.8122 C.3     1  UNL11      -0.0303
     14 C         119.8846  151.5913  147.3573 C.ar    1  UNL11      -0.0339
     15 C         118.2145  152.8221  146.0611 C.ar    1  UNL11       0.1669
     16 C         121.8305  155.0825  147.0318 C.2     1  UNL11      -0.0760
     17 C         120.9223  156.2215  146.6165 C.3     1  UNL11      -0.0046
     18 C         118.8607  150.8019  147.8706 C.ar    1  UNL11      -0.0544
     19 C         117.1861  152.0398  146.5479 C.ar    1  UNL11       0.1618
     20 C         123.8774  150.8094  146.2069 C.3     1  UNL11      -0.0425
     21 C         117.5309  151.0146  147.4488 C.ar    1  UNL11      -0.0160
     22 C         115.4447  153.0945  145.3172 C.3     1  UNL11       0.0790
     23 H         117.9618  155.1389  147.4080 H       1  UNL11       0.2100
     24 H         123.5274  152.6871  145.5229 H       1  UNL11       0.2037
     25 H         119.6809  154.9612  144.3505 H       1  UNL11       0.0771
     26 H         123.1174  152.8102  147.8065 H       1  UNL11       0.0904
     27 H         121.6636  153.5225  143.9234 H       1  UNL11       0.0330
     28 H         120.2737  152.4560  143.7886 H       1  UNL11       0.0330
     29 H         118.8914  156.5918  145.9277 H       1  UNL11       0.0634
     30 H         121.2652  151.8852  148.9214 H       1  UNL11       0.0372
     31 H         121.6892  150.5479  147.8565 H       1  UNL11       0.0372
     32 H         121.3696  150.7191  145.1441 H       1  UNL11       0.0815
     33 H         122.5329  151.2937  143.9330 H       1  UNL11       0.0815
     34 H         122.6406  155.3305  147.7145 H       1  UNL11       0.0575
     35 H         120.9098  156.9561  147.4309 H       1  UNL11       0.0334
     36 H         121.3491  156.7075  145.7319 H       1  UNL11       0.0334
     37 H         119.0589  150.0417  148.6234 H       1  UNL11       0.0622
     38 H         123.3041  149.9293  146.5054 H       1  UNL11       0.0778
     39 H         124.5533  151.1313  147.0030 H       1  UNL11       0.0778
     40 H         124.4490  150.5997  145.2986 H       1  UNL11       0.0778
     41 H         116.7384  150.3938  147.8666 H       1  UNL11       0.0655
     42 H         114.3661  152.9787  145.1722 H       1  UNL11       0.0660
     43 H         115.9281  152.9051  144.3532 H       1  UNL11       0.0660
     44 H         115.6213  154.1176  145.6635 H       1  UNL11       0.0660
@<TRIPOS>UNITY_ATOM_ATTR
4 1
charge 1
@<TRIPOS>BOND
     1     1     6    1
     2     1    15    1
     3     2    11    1
     4     3    19    1
     5     3    22    1
     6     4     8    1
     7     4    13    1
     8     4    20    1
     9     5     6    1
    10     5     7    1
    11     5     9    1
    12     5    10    1
    13     6    11    1
    14     7     8    1
    15     7    16    2
    16     8    12    1
    17     9    13    1
    18    10    14   ar
    19    10    15   ar
    20    11    17    1
    21    12    14    1
    22    14    18   ar
    23    15    19   ar
    24    16    17    1
    25    18    21   ar
    26    19    21   ar
    27     2    23    1
    28     4    24    1
    29     6    25    1
    30     8    26    1
    31     9    27    1
    32     9    28    1
    33    11    29    1
    34    12    30    1
    35    12    31    1
    36    13    32    1
    37    13    33    1
    38    16    34    1
    39    17    35    1
    40    17    36    1
    41    18    37    1
    42    20    38    1
    43    20    39    1
    44    20    40    1
    45    21    41    1
    46    22    42    1
    47    22    43    1
    48    22    44    1
@<TRIPOS>MOLECULE
3063
 46 50 0 0 0
SMALL
GASTEIGER

@<TRIPOS>ATOM
      1 O         121.5980  153.7727  147.5530 O.3     1  UNL11      -0.4814
      2 O         121.6762  156.6362  146.4548 O.3     1  UNL11      -0.3881
      3 O         123.4504  151.5050  146.9782 O.3     1  UNL11      -0.4914
      4 N         116.5988  152.6003  146.9411 N.4     1  UNL11       0.2357
      5 C         119.2594  153.7603  146.9710 C.3     1  UNL11       0.0516
      6 C         118.1912  154.2308  145.9813 C.3     1  UNL11       0.0158
      7 C         120.4781  154.6676  147.2158 C.3     1  UNL11       0.1363
      8 C         117.3154  152.9985  145.6307 C.3     1  UNL11      -0.0132
      9 C         118.5754  153.3312  148.2888 C.3     1  UNL11       0.0012
     10 C         120.0037  152.5993  146.4140 C.ar    1  UNL11       0.0117
     11 C         118.7821  154.9439  144.7605 C.3     1  UNL11      -0.0417
     12 C         120.9030  155.5257  146.0004 C.3     1  UNL11       0.0928
     13 C         118.1120  151.8073  145.0068 C.3     1  UNL11       0.0162
     14 C         119.7142  156.0668  145.2102 C.3     1  UNL11      -0.0229
     15 C         117.5232  152.2418  148.0852 C.3     1  UNL11      -0.0309
     16 C         119.4942  151.6256  145.5739 C.ar    1  UNL11      -0.0345
     17 C         121.3170  152.6248  146.8466 C.ar    1  UNL11       0.1665
     18 C         115.5178  151.5664  146.7556 C.3     1  UNL11      -0.0428
     19 C         120.3476  150.5738  145.2410 C.ar    1  UNL11      -0.0544
     20 C         122.1684  151.5911  146.5267 C.ar    1  UNL11       0.1618
     21 C         121.6667  150.5431  145.7429 C.ar    1  UNL11      -0.0160
     22 C         124.2889  152.4745  146.3513 C.3     1  UNL11       0.0790
     23 H         122.4713  156.2769  146.8921 H       1  UNL11       0.2099
     24 H         116.0920  153.4434  147.2449 H       1  UNL11       0.2033
     25 H         117.5568  154.9764  146.4842 H       1  UNL11       0.0365
     26 H         120.3168  155.3178  148.0848 H       1  UNL11       0.0768
     27 H         116.5103  153.2953  144.9479 H       1  UNL11       0.0857
     28 H         118.0955  154.2092  148.7417 H       1  UNL11       0.0327
     29 H         119.3073  152.9728  149.0243 H       1  UNL11       0.0327
     30 H         117.9701  155.3649  144.1560 H       1  UNL11       0.0271
     31 H         119.3298  154.2514  144.1116 H       1  UNL11       0.0271
     32 H         121.5502  154.9549  145.3234 H       1  UNL11       0.0630
     33 H         118.2322  152.0166  143.9358 H       1  UNL11       0.0368
     34 H         117.5545  150.8695  145.0830 H       1  UNL11       0.0368
     35 H         119.1642  156.8003  145.8138 H       1  UNL11       0.0291
     36 H         120.0795  156.6188  144.3355 H       1  UNL11       0.0291
     37 H         117.9669  151.2652  147.8679 H       1  UNL11       0.0815
     38 H         116.9014  152.1451  148.9821 H       1  UNL11       0.0815
     39 H         115.9779  150.5927  146.5752 H       1  UNL11       0.0778
     40 H         114.8921  151.8733  145.9139 H       1  UNL11       0.0778
     41 H         114.9217  151.5416  147.6720 H       1  UNL11       0.0778
     42 H         120.0170  149.7697  144.5858 H       1  UNL11       0.0622
     43 H         122.3191  149.7090  145.4905 H       1  UNL11       0.0655
     44 H         125.3197  152.2729  146.6583 H       1  UNL11       0.0660
     45 H         124.0377  153.4913  146.6683 H       1  UNL11       0.0660
     46 H         124.2397  152.3916  145.2594 H       1  UNL11       0.0660
@<TRIPOS>UNITY_ATOM_ATTR
4 1
charge 1
@<TRIPOS>BOND
     1     1     7    1
     2     1    17    1
     3     2    12    1
     4     3    20    1
     5     3    22    1
     6     4     8    1
     7     4    15    1
     8     4    18    1
     9     5     6    1
    10     5     7    1
    11     5     9    1
    12     5    10    1
    13     6     8    1
    14     6    11    1
    15     7    12    1
    16     8    13    1
    17     9    15    1
    18    10    16   ar
    19    10    17   ar
    20    11    14    1
    21    12    14    1
    22    13    16    1
    23    16    19   ar
    24    17    20   ar
    25    19    21   ar
    26    20    21   ar
    27     2    23    1
    28     4    24    1
    29     6    25    1
    30     7    26    1
    31     8    27    1
    32     9    28    1
    33     9    29    1
    34    11    30    1
    35    11    31    1
    36    12    32    1
    37    13    33    1
    38    13    34    1
    39    14    35    1
    40    14    36    1
    41    15    37    1
    42    15    38    1
    43    18    39    1
    44    18    40    1
    45    18    41    1
    46    19    42    1
    47    21    43    1
    48    22    44    1
    49    22    45    1
    50    22    46    1
@<TRIPOS>MOLECULE
5284543
 46 50 0 0 0
SMALL
GASTEIGER

@<TRIPOS>ATOM
      1 O         121.3704  154.1373  147.7337 O.3     1  UNL11      -0.4814
      2 O         121.1863  155.4712  145.3301 O.3     1  UNL11      -0.3881
      3 O         123.6165  152.5615  147.0429 O.3     1  UNL11      -0.4914
      4 N         116.7429  151.9951  146.8794 N.4     1  UNL11       0.2357
      5 C         119.0860  153.6974  147.1025 C.3     1  UNL11       0.0516
      6 C         117.9270  154.0422  146.1653 C.3     1  UNL11       0.0158
      7 C         120.0945  154.8075  147.4581 C.3     1  UNL11       0.1363
      8 C         117.3485  152.7024  145.6418 C.3     1  UNL11      -0.0132
      9 C         118.5122  152.9890  148.3522 C.3     1  UNL11       0.0012
     10 C         120.0523  152.7749  146.4525 C.ar    1  UNL11       0.0117
     11 C         118.3055  155.0380  145.0669 C.3     1  UNL11      -0.0417
     12 C         120.2968  155.8951  146.3657 C.3     1  UNL11       0.0928
     13 C         118.3849  151.8033  144.8935 C.3     1  UNL11       0.0162
     14 C         118.9815  156.2700  145.6834 C.3     1  UNL11      -0.0229
     15 C         117.7231  151.7259  148.0027 C.3     1  UNL11      -0.0309
     16 C         119.7670  151.8340  145.4851 C.ar    1  UNL11      -0.0345
     17 C         121.3295  153.0150  146.9268 C.ar    1  UNL11       0.1665
     18 C         115.9319  150.7706  146.5443 C.3     1  UNL11      -0.0428
     19 C         120.8317  151.0468  145.0494 C.ar    1  UNL11      -0.0544
     20 C         122.4006  152.2450  146.5178 C.ar    1  UNL11       0.1618
     21 C         122.1323  151.2381  145.5776 C.ar    1  UNL11      -0.0160
     22 C         124.7335  151.8055  146.5919 C.3     1  UNL11       0.0790
     23 H         122.0279  155.2273  145.7641 H       1  UNL11       0.2099
     24 H         116.0550  152.6580  147.2619 H       1  UNL11       0.2033
     25 H         117.1470  154.5478  146.7551 H       1  UNL11       0.0365
     26 H         119.7732  155.3113  148.3787 H       1  UNL11       0.0768
     27 H         116.4934  152.8968  144.9834 H       1  UNL11       0.0857
     28 H         117.8530  153.6861  148.8865 H       1  UNL11       0.0327
     29 H         119.3042  152.7178  149.0623 H       1  UNL11       0.0327
     30 H         117.3998  155.3526  144.5345 H       1  UNL11       0.0271
     31 H         118.9621  154.5809  144.3185 H       1  UNL11       0.0271
     32 H         120.7521  156.7824  146.8196 H       1  UNL11       0.0630
     33 H         118.4684  152.1818  143.8664 H       1  UNL11       0.0368
     34 H         118.0363  150.7692  144.8196 H       1  UNL11       0.0368
     35 H         118.3068  156.7471  146.4039 H       1  UNL11       0.0291
     36 H         119.1747  156.9934  144.8822 H       1  UNL11       0.0291
     37 H         118.3706  150.8992  147.6942 H       1  UNL11       0.0815
     38 H         117.1361  151.3971  148.8674 H       1  UNL11       0.0815
     39 H         116.6056  149.9571  146.2676 H       1  UNL11       0.0778
     40 H         115.2542  151.0228  145.7250 H       1  UNL11       0.0778
     41 H         115.3555  150.5010  147.4335 H       1  UNL11       0.0778
     42 H         120.6865  150.2931  144.2771 H       1  UNL11       0.0622
     43 H         122.9265  150.6010  145.1968 H       1  UNL11       0.0655
     44 H         125.6236  152.1870  147.1013 H       1  UNL11       0.0660
     45 H         124.8855  151.9313  145.5148 H       1  UNL11       0.0660
     46 H         124.6256  150.7481  146.8550 H       1  UNL11       0.0660
@<TRIPOS>UNITY_ATOM_ATTR
4 1
charge 1
@<TRIPOS>BOND
     1     1     7    1
     2     1    17    1
     3     2    12    1
     4     3    20    1
     5     3    22    1
     6     4     8    1
     7     4    15    1
     8     4    18    1
     9     5     6    1
    10     5     7    1
    11     5     9    1
    12     5    10    1
    13     6     8    1
    14     6    11    1
    15     7    12    1
    16     8    13    1
    17     9    15    1
    18    10    16   ar
    19    10    17   ar
    20    11    14    1
    21    12    14    1
    22    13    16    1
    23    16    19   ar
    24    17    20   ar
    25    19    21   ar
    26    20    21   ar
    27     2    23    1
    28     4    24    1
    29     6    25    1
    30     7    26    1
    31     8    27    1
    32     9    28    1
    33     9    29    1
    34    11    30    1
    35    11    31    1
    36    12    32    1
    37    13    33    1
    38    13    34    1
    39    14    35    1
    40    14    36    1
    41    15    37    1
    42    15    38    1
    43    18    39    1
    44    18    40    1
    45    18    41    1
    46    19    42    1
    47    21    43    1
    48    22    44    1
    49    22    45    1
    50    22    46    1
@<TRIPOS>MOLECULE
54541127
 45 49 0 0 0
SMALL
GASTEIGER

@<TRIPOS>ATOM
      1 O         121.5153  154.1976  147.6389 O.3     1  UNL11      -0.4811
      2 O         118.1577  151.9814  143.8760 O.3     1  UNL11      -0.3815
      3 O         121.8796  155.4378  145.3564 O.3     1  UNL11      -0.3841
      4 O         123.5317  152.2785  147.1600 O.3     1  UNL11      -0.4914
      5 N         116.6237  152.5735  147.2764 N.4     1  UNL11       0.2378
      6 C         119.1760  153.9677  147.1233 C.3     1  UNL11       0.0555
      7 C         118.0319  154.2978  146.1605 C.3     1  UNL11       0.0364
      8 C         117.2621  152.9626  145.9130 C.3     1  UNL11       0.0169
      9 C         120.3322  154.9809  147.2508 C.3     1  UNL11       0.1402
     10 C         118.5770  153.5646  148.4922 C.3     1  UNL11       0.0015
     11 C         119.9964  152.8322  146.6143 C.ar    1  UNL11       0.0145
     12 C         118.1549  151.8157  145.2938 C.3     1  UNL11       0.1235
     13 C         117.6184  152.3750  148.3983 C.3     1  UNL11      -0.0308
     14 C         119.5659  151.7918  145.8171 C.ar    1  UNL11      -0.0062
     15 C         120.6438  155.8106  145.9620 C.3     1  UNL11       0.1110
     16 C         118.4717  155.0301  144.9280 C.2     1  UNL11      -0.0760
     17 C         121.3117  152.9826  147.0134 C.ar    1  UNL11       0.1666
     18 C         119.6242  155.7116  144.8651 C.2     1  UNL11      -0.0558
     19 C         120.5136  150.8164  145.4990 C.ar    1  UNL11      -0.0520
     20 C         115.6460  151.4311  147.1750 C.3     1  UNL11      -0.0427
     21 C         122.2692  152.0338  146.7127 C.ar    1  UNL11       0.1618
     22 C         121.8483  150.9295  145.9576 C.ar    1  UNL11      -0.0159
     23 C         124.5481  151.3679  146.7591 C.3     1  UNL11       0.0790
     24 H         119.0750  152.1172  143.5687 H       1  UNL11       0.2105
     25 H         122.4753  155.1449  146.0735 H       1  UNL11       0.2104
     26 H         116.0426  153.3799  147.5449 H       1  UNL11       0.2035
     27 H         117.3398  154.9950  146.6569 H       1  UNL11       0.0409
     28 H         116.4100  153.1599  145.2495 H       1  UNL11       0.0886
     29 H         120.1197  155.6843  148.0661 H       1  UNL11       0.0772
     30 H         118.0372  154.4247  148.9105 H       1  UNL11       0.0327
     31 H         119.3625  153.3187  149.2185 H       1  UNL11       0.0327
     32 H         117.6963  150.8414  145.4833 H       1  UNL11       0.0701
     33 H         118.1427  151.4310  148.2192 H       1  UNL11       0.0815
     34 H         117.0420  152.2790  149.3249 H       1  UNL11       0.0815
     35 H         120.7414  156.8642  146.2484 H       1  UNL11       0.0675
     36 H         117.8069  155.0507  144.0648 H       1  UNL11       0.0575
     37 H         119.8742  156.2439  143.9472 H       1  UNL11       0.0596
     38 H         120.2450  149.9652  144.8739 H       1  UNL11       0.0622
     39 H         116.1953  150.4990  147.0288 H       1  UNL11       0.0778
     40 H         114.9709  151.6316  146.3396 H       1  UNL11       0.0778
     41 H         115.0805  151.3961  148.1102 H       1  UNL11       0.0778
     42 H         122.5458  150.1446  145.6756 H       1  UNL11       0.0655
     43 H         125.4986  151.7272  147.1652 H       1  UNL11       0.0660
     44 H         124.6418  151.3352  145.6685 H       1  UNL11       0.0660
     45 H         124.3653  150.3697  147.1700 H       1  UNL11       0.0660
@<TRIPOS>UNITY_ATOM_ATTR
5 1
charge 1
@<TRIPOS>BOND
     1     1     9    1
     2     1    17    1
     3     2    12    1
     4     3    15    1
     5     4    21    1
     6     4    23    1
     7     5     8    1
     8     5    13    1
     9     5    20    1
    10     6     7    1
    11     6     9    1
    12     6    10    1
    13     6    11    1
    14     7     8    1
    15     7    16    1
    16     8    12    1
    17     9    15    1
    18    10    13    1
    19    11    14   ar
    20    11    17   ar
    21    12    14    1
    22    14    19   ar
    23    15    18    1
    24    16    18    2
    25    17    21   ar
    26    19    22   ar
    27    21    22   ar
    28     2    24    1
    29     3    25    1
    30     5    26    1
    31     7    27    1
    32     8    28    1
    33     9    29    1
    34    10    30    1
    35    10    31    1
    36    12    32    1
    37    13    33    1
    38    13    34    1
    39    15    35    1
    40    16    36    1
    41    18    37    1
    42    19    38    1
    43    20    39    1
    44    20    40    1
    45    20    41    1
    46    22    42    1
    47    23    43    1
    48    23    44    1
    49    23    45    1
@<TRIPOS>MOLECULE
628577
 47 51 0 0 0
SMALL
GASTEIGER

@<TRIPOS>ATOM
      1 O         118.4089  152.4222  147.6427 O.3     1  UNL11      -0.4811
      2 O         117.7495  150.9291  145.4962 O.3     1  UNL11      -0.3721
      3 O         116.6043  154.5414  147.0853 O.3     1  UNL11      -0.4914
      4 N         123.3844  153.4383  146.8556 N.4     1  UNL11       0.2359
      5 C         120.7076  152.3069  146.9748 C.3     1  UNL11       0.0553
      6 C         121.7544  151.7596  146.0006 C.3     1  UNL11       0.0339
      7 C         122.6427  152.9692  145.5765 C.3     1  UNL11      -0.0097
      8 C         119.4512  151.4586  147.2622 C.3     1  UNL11       0.1404
      9 C         121.4226  152.7730  148.2648 C.3     1  UNL11       0.0015
     10 C         119.9938  153.4776  146.3897 C.ar    1  UNL11       0.0120
     11 C         121.8536  154.1243  144.8831 C.3     1  UNL11       0.0165
     12 C         122.4791  153.8460  147.9993 C.3     1  UNL11      -0.0309
     13 C         118.9872  150.5262  146.0871 C.3     1  UNL11       0.1141
     14 C         120.5001  154.3830  145.4804 C.ar    1  UNL11      -0.0345
     15 C         121.1681  150.9767  144.8654 C.2     1  UNL11      -0.0761
     16 C         118.6980  153.5267  146.8692 C.ar    1  UNL11       0.1666
     17 C         119.9483  150.4255  144.9288 C.2     1  UNL11      -0.0555
     18 C         119.6580  155.4292  145.1074 C.ar    1  UNL11      -0.0544
     19 C         124.4516  154.4693  146.5974 C.3     1  UNL11      -0.0428
     20 C         117.8491  154.5625  146.5327 C.ar    1  UNL11       0.1618
     21 C         118.3517  155.5277  145.6457 C.ar    1  UNL11      -0.0160
     22 C         116.6121  150.3982  146.1665 C.3     1  UNL11       0.0374
     23 C         115.6871  155.5363  146.6494 C.3     1  UNL11       0.0790
     24 H         123.9020  152.6134  147.1888 H       1  UNL11       0.2034
     25 H         122.3962  151.0401  146.5310 H       1  UNL11       0.0408
     26 H         123.4398  152.6272  144.9045 H       1  UNL11       0.0860
     27 H         119.6343  150.8213  148.1371 H       1  UNL11       0.0772
     28 H         121.9022  151.9065  148.7393 H       1  UNL11       0.0327
     29 H         120.7104  153.1651  149.0024 H       1  UNL11       0.0327
     30 H         121.6915  153.8330  143.8370 H       1  UNL11       0.0368
     31 H         122.4355  155.0502  144.8656 H       1  UNL11       0.0368
     32 H         122.0386  154.8168  147.7517 H       1  UNL11       0.0815
     33 H         123.1163  153.9737  148.8814 H       1  UNL11       0.0815
     34 H         118.8806  149.5070  146.4835 H       1  UNL11       0.0678
     35 H         121.7708  150.8027  143.9753 H       1  UNL11       0.0575
     36 H         119.5878  149.8462  144.0786 H       1  UNL11       0.0596
     37 H         119.9822  156.1732  144.3818 H       1  UNL11       0.0622
     38 H         123.9796  155.4295  146.3795 H       1  UNL11       0.0778
     39 H         125.0629  154.1262  145.7592 H       1  UNL11       0.0778
     40 H         125.0658  154.5435  147.4991 H       1  UNL11       0.0778
     41 H         117.7379  156.3645  145.3229 H       1  UNL11       0.0655
     42 H         115.7149  150.8221  145.7078 H       1  UNL11       0.0524
     43 H         116.6159  150.6535  147.2295 H       1  UNL11       0.0524
     44 H         116.5813  149.3108  146.0471 H       1  UNL11       0.0524
     45 H         114.7309  155.3520  147.1484 H       1  UNL11       0.0660
     46 H         115.5176  155.4735  145.5693 H       1  UNL11       0.0660
     47 H         116.0264  156.5364  146.9383 H       1  UNL11       0.0660
@<TRIPOS>UNITY_ATOM_ATTR
4 1
charge 1
@<TRIPOS>BOND
     1     1     8    1
     2     1    16    1
     3     2    13    1
     4     2    22    1
     5     3    20    1
     6     3    23    1
     7     4     7    1
     8     4    12    1
     9     4    19    1
    10     5     6    1
    11     5     8    1
    12     5     9    1
    13     5    10    1
    14     6     7    1
    15     6    15    1
    16     7    11    1
    17     8    13    1
    18     9    12    1
    19    10    14   ar
    20    10    16   ar
    21    11    14    1
    22    13    17    1
    23    14    18   ar
    24    15    17    2
    25    16    20   ar
    26    18    21   ar
    27    20    21   ar
    28     4    24    1
    29     6    25    1
    30     7    26    1
    31     8    27    1
    32     9    28    1
    33     9    29    1
    34    11    30    1
    35    11    31    1
    36    12    32    1
    37    12    33    1
    38    13    34    1
    39    15    35    1
    40    17    36    1
    41    18    37    1
    42    19    38    1
    43    19    39    1
    44    19    40    1
    45    21    41    1
    46    22    42    1
    47    22    43    1
    48    22    44    1
    49    23    45    1
    50    23    46    1
    51    23    47    1
@<TRIPOS>MOLECULE
3082222
 47 50 0 0 0
SMALL
GASTEIGER

@<TRIPOS>ATOM
      1 O         119.0797  153.3545  148.1207 O.3     1  UNL11      -0.4810
      2 O         118.0963  150.8510  147.8820 O.3     1  UNL11      -0.3841
      3 O         116.5714  154.6276  147.7707 O.3     1  UNL11      -0.4914
      4 N         123.7167  154.9586  147.0540 N.4     1  UNL11       0.2309
      5 C         120.5916  152.6774  146.3505 C.3     1  UNL11       0.0539
      6 C         120.0925  152.3433  147.7784 C.3     1  UNL11       0.1403
      7 C         121.1085  151.5194  145.4546 C.3     1  UNL11       0.0090
      8 C         119.2776  153.1826  145.8521 C.ar    1  UNL11       0.0159
      9 C         121.5547  153.9139  146.3327 C.3     1  UNL11       0.0016
     10 C         119.5134  150.9145  147.9959 C.3     1  UNL11       0.1110
     11 C         118.4982  153.6373  146.8982 C.ar    1  UNL11       0.1669
     12 C         120.7267  150.1466  145.9287 C.2     1  UNL11      -0.0776
     13 C         118.8492  153.1711  144.5422 C.ar    1  UNL11      -0.0177
     14 C         120.7206  151.7184  143.9895 C.2     1  UNL11      -0.0756
     15 C         120.0371  149.8874  147.0478 C.2     1  UNL11      -0.0557
     16 C         122.9547  153.6538  146.8888 C.3     1  UNL11      -0.0314
     17 C         119.7013  152.4940  143.5672 C.2     1  UNL11      -0.0575
     18 C         117.2613  154.2097  146.6725 C.ar    1  UNL11       0.1618
     19 C         117.6129  153.7540  144.2802 C.ar    1  UNL11      -0.0506
     20 C         116.8313  154.2830  145.3376 C.ar    1  UNL11      -0.0157
     21 C         124.0204  155.6553  145.7522 C.3     1  UNL11      -0.0433
     22 C         124.9755  154.7581  147.8593 C.3     1  UNL11      -0.0433
     23 C         115.2317  155.0577  147.5594 C.3     1  UNL11       0.0790
     24 H         117.7361  151.6501  148.3103 H       1  UNL11       0.2104
     25 H         123.1225  155.5975  147.6017 H       1  UNL11       0.2028
     26 H         120.9170  152.4644  148.4905 H       1  UNL11       0.0772
     27 H         122.2042  151.5214  145.4797 H       1  UNL11       0.0395
     28 H         121.1075  154.7450  146.8966 H       1  UNL11       0.0327
     29 H         121.6448  154.2738  145.2995 H       1  UNL11       0.0327
     30 H         119.7530  150.6071  149.0206 H       1  UNL11       0.0675
     31 H         121.0302  149.3038  145.3080 H       1  UNL11       0.0576
     32 H         121.2978  151.1698  143.2473 H       1  UNL11       0.0578
     33 H         119.7818  148.8546  147.2812 H       1  UNL11       0.0596
     34 H         122.9024  153.2009  147.8828 H       1  UNL11       0.0814
     35 H         123.5577  153.0172  146.2347 H       1  UNL11       0.0814
     36 H         119.4478  152.5740  142.5145 H       1  UNL11       0.0621
     37 H         117.2183  153.7811  143.2668 H       1  UNL11       0.0625
     38 H         115.8691  154.7163  145.0786 H       1  UNL11       0.0655
     39 H         124.5678  154.9640  145.1063 H       1  UNL11       0.0777
     40 H         124.6207  156.5424  145.9719 H       1  UNL11       0.0777
     41 H         123.0781  155.9651  145.2961 H       1  UNL11       0.0777
     42 H         125.6365  154.0841  147.3078 H       1  UNL11       0.0777
     43 H         124.6962  154.3316  148.8262 H       1  UNL11       0.0777
     44 H         125.4442  155.7345  148.0078 H       1  UNL11       0.0777
     45 H         114.7977  155.2923  148.5362 H       1  UNL11       0.0660
     46 H         114.6267  154.2644  147.1076 H       1  UNL11       0.0660
     47 H         115.2037  155.9696  146.9542 H       1  UNL11       0.0660
@<TRIPOS>UNITY_ATOM_ATTR
4 1
charge 1
@<TRIPOS>BOND
     1     1     6    1
     2     1    11    1
     3     2    10    1
     4     3    18    1
     5     3    23    1
     6     4    16    1
     7     4    21    1
     8     4    22    1
     9     5     6    1
    10     5     7    1
    11     5     8    1
    12     5     9    1
    13     6    10    1
    14     7    12    1
    15     7    14    1
    16     8    11   ar
    17     8    13   ar
    18     9    16    1
    19    10    15    1
    20    11    18   ar
    21    12    15    2
    22    13    17    1
    23    13    19   ar
    24    14    17    2
    25    18    20   ar
    26    19    20   ar
    27     2    24    1
    28     4    25    1
    29     6    26    1
    30     7    27    1
    31     9    28    1
    32     9    29    1
    33    10    30    1
    34    12    31    1
    35    14    32    1
    36    15    33    1
    37    16    34    1
    38    16    35    1
    39    17    36    1
    40    19    37    1
    41    20    38    1
    42    21    39    1
    43    21    40    1
    44    21    41    1
    45    22    42    1
    46    22    43    1
    47    22    44    1
    48    23    45    1
    49    23    46    1
    50    23    47    1
@<TRIPOS>MOLECULE
5362446
 44 48 0 0 0
SMALL
GASTEIGER

@<TRIPOS>ATOM
      1 O         121.9170  153.7084  147.7276 O.3     1  UNL11      -0.4811
      2 O         122.7334  155.5888  146.0635 O.3     1  UNL11      -0.3841
      3 O         123.6539  151.4131  147.2720 O.3     1  UNL11      -0.5033
      4 N         116.8302  152.7901  146.7417 N.4     1  UNL11       0.2418
      5 C         119.5927  153.8434  147.0147 C.3     1  UNL11       0.0553
      6 C         118.6760  154.3735  145.9055 C.3     1  UNL11       0.0340
      7 C         117.7306  153.1932  145.4933 C.3     1  UNL11      -0.0082
      8 C         118.7575  153.4771  148.2578 C.3     1  UNL11       0.0015
      9 C         120.8485  154.6700  147.3864 C.3     1  UNL11       0.1402
     10 C         120.3030  152.6255  146.5249 C.ar    1  UNL11       0.0120
     11 C         117.6722  152.4385  147.9756 C.3     1  UNL11      -0.0294
     12 C         118.5316  151.9797  144.9076 C.3     1  UNL11       0.0166
     13 C         119.8220  151.6915  145.6237 C.ar    1  UNL11      -0.0345
     14 C         119.4521  154.9784  144.7630 C.2     1  UNL11      -0.0761
     15 C         121.3312  155.6618  146.2860 C.3     1  UNL11       0.1110
     16 C         121.5808  152.5763  147.0326 C.ar    1  UNL11       0.1663
     17 C         115.9443  151.5755  146.4053 C.3     1  UNL11      -0.0412
     18 C         115.8481  153.9287  147.0787 C.3     1  UNL11      -0.0412
     19 C         120.6523  155.5480  144.9514 C.2     1  UNL11      -0.0558
     20 C         120.6495  150.6049  145.3275 C.ar    1  UNL11      -0.0544
     21 C         122.3980  151.5042  146.7643 C.ar    1  UNL11       0.1588
     22 C         121.9256  150.5012  145.9187 C.ar    1  UNL11      -0.0162
     23 H         123.0391  154.7227  146.3887 H       1  UNL11       0.2104
     24 H         123.7972  152.1903  147.8428 H       1  UNL11       0.2923
     25 H         118.0725  155.2024  146.2923 H       1  UNL11       0.0408
     26 H         117.0142  153.5291  144.7325 H       1  UNL11       0.0861
     27 H         118.2990  154.3875  148.6640 H       1  UNL11       0.0327
     28 H         119.3985  153.0861  149.0594 H       1  UNL11       0.0327
     29 H         120.6663  155.2519  148.2991 H       1  UNL11       0.0772
     30 H         118.1116  151.4497  147.8059 H       1  UNL11       0.0815
     31 H         116.9880  152.3510  148.8279 H       1  UNL11       0.0815
     32 H         118.8001  152.2396  143.8742 H       1  UNL11       0.0368
     33 H         117.9278  151.0728  144.8362 H       1  UNL11       0.0368
     34 H         119.0112  155.0020  143.7679 H       1  UNL11       0.0575
     35 H         121.1315  156.6802  146.6419 H       1  UNL11       0.0675
     36 H         116.5657  150.6798  146.3409 H       1  UNL11       0.0778
     37 H         115.4347  151.7753  145.4587 H       1  UNL11       0.0778
     38 H         115.2179  151.4422  147.2133 H       1  UNL11       0.0778
     39 H         116.3986  154.7983  147.4381 H       1  UNL11       0.0778
     40 H         115.1725  153.5823  147.8670 H       1  UNL11       0.0778
     41 H         115.2848  154.1731  146.1737 H       1  UNL11       0.0778
     42 H         121.1646  156.0129  144.1097 H       1  UNL11       0.0596
     43 H         120.3394  149.8432  144.6143 H       1  UNL11       0.0622
     44 H         122.5682  149.6563  145.6791 H       1  UNL11       0.0655
@<TRIPOS>UNITY_ATOM_ATTR
4 1
charge 1
@<TRIPOS>BOND
     1     1     9    1
     2     1    16    1
     3     2    15    1
     4     3    21    1
     5     4     7    1
     6     4    11    1
     7     4    17    1
     8     4    18    1
     9     5     6    1
    10     5     8    1
    11     5     9    1
    12     5    10    1
    13     6     7    1
    14     6    14    1
    15     7    12    1
    16     8    11    1
    17     9    15    1
    18    10    13   ar
    19    10    16   ar
    20    12    13    1
    21    13    20   ar
    22    14    19    2
    23    15    19    1
    24    16    21   ar
    25    20    22   ar
    26    21    22   ar
    27     2    23    1
    28     3    24    1
    29     6    25    1
    30     7    26    1
    31     8    27    1
    32     8    28    1
    33     9    29    1
    34    11    30    1
    35    11    31    1
    36    12    32    1
    37    12    33    1
    38    14    34    1
    39    15    35    1
    40    17    36    1
    41    17    37    1
    42    17    38    1
    43    18    39    1
    44    18    40    1
    45    18    41    1
    46    19    42    1
    47    20    43    1
    48    22    44    1
@<TRIPOS>MOLECULE
5493042
 41 45 0 0 0
SMALL
GASTEIGER

@<TRIPOS>ATOM
      1 BR        120.2433  157.0633  144.9728 Br      1  UNL11      -0.0499
      2 O         117.8862  152.2328  147.6859 O.3     1  UNL11      -0.4811
      3 O         117.0179  151.2871  145.4026 O.3     1  UNL11      -0.3841
      4 O         116.4172  154.7606  147.6626 O.3     1  UNL11      -0.5033
      5 N         122.9898  152.7253  146.9563 N.4     1  UNL11       0.2359
      6 C         120.1786  151.9793  146.9524 C.3     1  UNL11       0.0553
      7 C         121.1180  151.5346  145.8268 C.3     1  UNL11       0.0339
      8 C         122.1640  152.6748  145.6455 C.3     1  UNL11      -0.0097
      9 C         118.8249  151.2504  147.1055 C.3     1  UNL11       0.1402
     10 C         120.9754  152.0412  148.2769 C.3     1  UNL11       0.0015
     11 C         119.6216  153.3342  146.6746 C.ar    1  UNL11       0.0131
     12 C         121.5389  154.0571  145.2816 C.3     1  UNL11       0.0176
     13 C         122.1781  152.9843  148.2062 C.3     1  UNL11      -0.0309
     14 C         120.2367  154.3610  145.9771 C.ar    1  UNL11      -0.0205
     15 C         118.2341  150.6538  145.7866 C.3     1  UNL11       0.1110
     16 C         120.4007  151.1295  144.5739 C.2     1  UNL11      -0.0761
     17 C         118.3466  153.4318  147.1936 C.ar    1  UNL11       0.1664
     18 C         119.1226  150.7258  144.5793 C.2     1  UNL11      -0.0558
     19 C         124.1978  153.6258  146.8805 C.3     1  UNL11      -0.0428
     20 C         119.5286  155.5682  145.8940 C.ar    1  UNL11       0.0252
     21 C         117.6597  154.6198  147.1340 C.ar    1  UNL11       0.1598
     22 C         118.2564  155.7034  146.4897 C.ar    1  UNL11      -0.0023
     23 H         116.5538  151.5470  146.2185 H       1  UNL11       0.2104
     24 H         116.1618  153.9041  148.0509 H       1  UNL11       0.2923
     25 H         123.3877  151.7821  147.0664 H       1  UNL11       0.2034
     26 H         121.6568  150.6296  146.1452 H       1  UNL11       0.0408
     27 H         122.8895  152.3943  144.8716 H       1  UNL11       0.0860
     28 H         118.9237  150.4334  147.8318 H       1  UNL11       0.0772
     29 H         121.3280  151.0315  148.5265 H       1  UNL11       0.0327
     30 H         120.3389  152.3549  149.1145 H       1  UNL11       0.0327
     31 H         121.3299  154.0460  144.2036 H       1  UNL11       0.0369
     32 H         122.2584  154.8610  145.4584 H       1  UNL11       0.0369
     33 H         121.8826  154.0382  148.2043 H       1  UNL11       0.0815
     34 H         122.8420  152.8148  149.0611 H       1  UNL11       0.0815
     35 H         117.9951  149.5990  145.9662 H       1  UNL11       0.0675
     36 H         120.9478  151.1075  143.6323 H       1  UNL11       0.0575
     37 H         118.6622  150.4144  143.6412 H       1  UNL11       0.0596
     38 H         123.8731  154.6677  146.9146 H       1  UNL11       0.0778
     39 H         124.7316  153.4039  145.9532 H       1  UNL11       0.0778
     40 H         124.8345  153.3976  147.7396 H       1  UNL11       0.0778
     41 H         117.7106  156.6425  146.4239 H       1  UNL11       0.0666
@<TRIPOS>UNITY_ATOM_ATTR
5 1
charge 1
@<TRIPOS>BOND
     1     1    20    1
     2     2     9    1
     3     2    17    1
     4     3    15    1
     5     4    21    1
     6     5     8    1
     7     5    13    1
     8     5    19    1
     9     6     7    1
    10     6     9    1
    11     6    10    1
    12     6    11    1
    13     7     8    1
    14     7    16    1
    15     8    12    1
    16     9    15    1
    17    10    13    1
    18    11    14   ar
    19    11    17   ar
    20    12    14    1
    21    14    20   ar
    22    15    18    1
    23    16    18    2
    24    17    21   ar
    25    20    22   ar
    26    21    22   ar
    27     3    23    1
    28     4    24    1
    29     5    25    1
    30     7    26    1
    31     8    27    1
    32     9    28    1
    33    10    29    1
    34    10    30    1
    35    12    31    1
    36    12    32    1
    37    13    33    1
    38    13    34    1
    39    15    35    1
    40    16    36    1
    41    18    37    1
    42    19    38    1
    43    19    39    1
    44    19    40    1
    45    22    41    1
@<TRIPOS>MOLECULE
154732850
 56 59 0 0 0
SMALL
GASTEIGER

@<TRIPOS>ATOM
      1 O         121.7640  152.5484  148.2027 O.3     1  UNL11      -0.4811
      2 O         120.1598  154.7219  147.1079 O.3     1  UNL11      -0.3666
      3 O         123.8776  152.2410  146.3579 O.3     1  UNL11      -0.4914
      4 O         119.4090  156.5316  144.9461 O.3     1  UNL11      -0.3807
      5 N         116.3337  152.9225  145.6685 N.4     1  UNL11       0.2337
      6 C         119.4515  151.8683  147.8593 C.3     1  UNL11       0.0477
      7 C         118.0140  152.3909  147.5398 C.3     1  UNL11       0.0335
      8 C         120.3939  152.8166  148.6402 C.3     1  UNL11       0.1400
      9 C         117.8126  152.6419  145.9965 C.3     1  UNL11      -0.0100
     10 C         120.3029  151.7219  146.6468 C.ar    1  UNL11       0.0116
     11 C         118.3934  151.4890  145.1273 C.3     1  UNL11       0.0165
     12 C         120.0234  154.3117  148.4733 C.3     1  UNL11       0.1145
     13 C         119.8736  151.4594  145.3615 C.ar    1  UNL11      -0.0345
     14 C         119.3710  150.5055  148.5796 C.3     1  UNL11      -0.0512
     15 C         117.6412  153.6012  148.3792 C.2     1  UNL11      -0.0761
     16 C         121.6184  152.0388  146.9310 C.ar    1  UNL11       0.1665
     17 C         118.5637  154.4802  148.8038 C.2     1  UNL11      -0.0555
     18 C         120.8460  151.3186  144.3745 C.ar    1  UNL11      -0.0544
     19 C         122.6093  151.9235  145.9722 C.ar    1  UNL11       0.1618
     20 C         122.2086  151.5276  144.6866 C.ar    1  UNL11      -0.0160
     21 C         116.1784  153.7120  144.3925 C.3     1  UNL11      -0.0431
     22 C         115.4139  151.7380  145.7047 C.3     1  UNL11      -0.0431
     23 C         120.6521  156.0575  146.9757 C.3     1  UNL11       0.0719
     24 C         120.7333  156.4193  145.4942 C.3     1  UNL11       0.0707
     25 C         124.9197  151.9811  145.4270 C.3     1  UNL11       0.0790
     26 C         119.4533  157.0719  143.6292 C.3     1  UNL11       0.0365
     27 H         116.0183  153.5703  146.4017 H       1  UNL11       0.2031
     28 H         117.3105  151.6036  147.8394 H       1  UNL11       0.0408
     29 H         120.3576  152.5823  149.7132 H       1  UNL11       0.0772
     30 H         118.3280  153.5758  145.7357 H       1  UNL11       0.0860
     31 H         118.1904  151.6639  144.0660 H       1  UNL11       0.0368
     32 H         117.9624  150.5207  145.4055 H       1  UNL11       0.0368
     33 H         120.6610  154.9124  149.1328 H       1  UNL11       0.0678
     34 H         118.8190  150.5979  149.5218 H       1  UNL11       0.0240
     35 H         120.3629  150.1025  148.8171 H       1  UNL11       0.0240
     36 H         118.8601  149.7586  147.9604 H       1  UNL11       0.0240
     37 H         116.5995  153.7564  148.6499 H       1  UNL11       0.0575
     38 H         118.2780  155.3505  149.3891 H       1  UNL11       0.0596
     39 H         120.5715  151.0882  143.3474 H       1  UNL11       0.0622
     40 H         122.9309  151.4221  143.8820 H       1  UNL11       0.0655
     41 H         116.4775  153.0855  143.5493 H       1  UNL11       0.0777
     42 H         116.8004  154.6080  144.4624 H       1  UNL11       0.0777
     43 H         115.1273  154.0003  144.3034 H       1  UNL11       0.0777
     44 H         115.6647  151.0673  144.8793 H       1  UNL11       0.0777
     45 H         114.3895  152.1056  145.5982 H       1  UNL11       0.0777
     46 H         115.5200  151.2349  146.6670 H       1  UNL11       0.0777
     47 H         121.6519  156.1137  147.4201 H       1  UNL11       0.0583
     48 H         119.9759  156.7455  147.4950 H       1  UNL11       0.0583
     49 H         121.2554  157.3767  145.3870 H       1  UNL11       0.0582
     50 H         121.2717  155.6415  144.9410 H       1  UNL11       0.0582
     51 H         125.8707  152.2157  145.9147 H       1  UNL11       0.0660
     52 H         124.8288  152.6256  144.5467 H       1  UNL11       0.0660
     53 H         124.9427  150.9239  145.1418 H       1  UNL11       0.0660
     54 H         118.4311  157.1249  143.2456 H       1  UNL11       0.0524
     55 H         120.0434  156.4277  142.9705 H       1  UNL11       0.0524
     56 H         119.8721  158.0831  143.6441 H       1  UNL11       0.0524
@<TRIPOS>UNITY_ATOM_ATTR
5 1
charge 1
@<TRIPOS>BOND
     1     1     8    1
     2     1    16    1
     3     2    12    1
     4     2    23    1
     5     3    19    1
     6     3    25    1
     7     4    24    1
     8     4    26    1
     9     5     9    1
    10     5    21    1
    11     5    22    1
    12     6     7    1
    13     6     8    1
    14     6    10    1
    15     6    14    1
    16     7     9    1
    17     7    15    1
    18     8    12    1
    19     9    11    1
    20    10    13   ar
    21    10    16   ar
    22    11    13    1
    23    12    17    1
    24    13    18   ar
    25    15    17    2
    26    16    19   ar
    27    18    20   ar
    28    19    20   ar
    29    23    24    1
    30     5    27    1
    31     7    28    1
    32     8    29    1
    33     9    30    1
    34    11    31    1
    35    11    32    1
    36    12    33    1
    37    14    34    1
    38    14    35    1
    39    14    36    1
    40    15    37    1
    41    17    38    1
    42    18    39    1
    43    20    40    1
    44    21    41    1
    45    21    42    1
    46    21    43    1
    47    22    44    1
    48    22    45    1
    49    22    46    1
    50    23    47    1
    51    23    48    1
    52    24    49    1
    53    24    50    1
    54    25    51    1
    55    25    52    1
    56    25    53    1
    57    26    54    1
    58    26    55    1
    59    26    56    1
@<TRIPOS>MOLECULE
154732849
 46 49 0 0 0
SMALL
GASTEIGER

@<TRIPOS>ATOM
      1 O         117.9533  154.6057  145.9256 O.3     1  UNL11      -0.4811
      2 O         119.6827  154.6973  148.2196 O.3     1  UNL11      -0.3841
      3 O         115.8018  152.9863  146.7479 O.3     1  UNL11      -0.4914
      4 N         123.3795  152.1741  146.8872 N.4     1  UNL11       0.2337
      5 C         120.1705  153.8287  145.2740 C.3     1  UNL11       0.0477
      6 C         121.6542  153.7048  145.7491 C.3     1  UNL11       0.0335
      7 C         119.3463  155.0330  145.7946 C.3     1  UNL11       0.1397
      8 C         121.8771  152.4380  146.6622 C.3     1  UNL11      -0.0100
      9 C         119.2939  152.7550  145.8166 C.ar    1  UNL11       0.0116
     10 C         121.1406  151.1746  146.1320 C.3     1  UNL11       0.0165
     11 C         119.8706  155.6019  147.1320 C.3     1  UNL11       0.1110
     12 C         119.6722  151.4722  146.1565 C.ar    1  UNL11      -0.0345
     13 C         120.1076  153.7849  143.7316 C.3     1  UNL11      -0.0512
     14 C         122.1650  154.9728  146.4085 C.2     1  UNL11      -0.0761
     15 C         118.0257  153.2385  146.0741 C.ar    1  UNL11       0.1665
     16 C         121.3496  155.8249  147.0491 C.2     1  UNL11      -0.0558
     17 C         118.6772  150.6037  146.5993 C.ar    1  UNL11      -0.0544
     18 C         117.0165  152.4088  146.5295 C.ar    1  UNL11       0.1618
     19 C         117.3521  151.0671  146.7641 C.ar    1  UNL11      -0.0160
     20 C         123.6403  151.4110  148.1625 C.3     1  UNL11      -0.0431
     21 C         124.1232  151.5770  145.7270 C.3     1  UNL11      -0.0431
     22 C         114.7202  152.1173  147.0597 C.3     1  UNL11       0.0790
     23 H         118.7142  154.5850  148.2999 H       1  UNL11       0.2104
     24 H         123.7940  153.0990  147.0584 H       1  UNL11       0.2031
     25 H         122.2725  153.5789  144.8512 H       1  UNL11       0.0408
     26 H         119.3626  155.8460  145.0557 H       1  UNL11       0.0772
     27 H         121.4895  152.6788  147.6625 H       1  UNL11       0.0860
     28 H         121.3529  150.3087  146.7672 H       1  UNL11       0.0368
     29 H         121.4444  150.9332  145.1074 H       1  UNL11       0.0368
     30 H         119.3476  156.5331  147.3744 H       1  UNL11       0.0675
     31 H         120.6754  154.6158  143.2977 H       1  UNL11       0.0240
     32 H         119.0797  153.8567  143.3559 H       1  UNL11       0.0240
     33 H         120.5276  152.8496  143.3429 H       1  UNL11       0.0240
     34 H         123.2274  155.2008  146.3647 H       1  UNL11       0.0575
     35 H         121.7462  156.7115  147.5386 H       1  UNL11       0.0596
     36 H         118.9089  149.5729  146.8601 H       1  UNL11       0.0622
     37 H         116.6123  150.3592  147.1283 H       1  UNL11       0.0655
     38 H         123.2451  150.3983  148.0573 H       1  UNL11       0.0777
     39 H         123.1565  151.9424  148.9860 H       1  UNL11       0.0777
     40 H         124.7215  151.3886  148.3247 H       1  UNL11       0.0777
     41 H         123.7843  150.5487  145.5793 H       1  UNL11       0.0777
     42 H         125.1896  151.5954  145.9684 H       1  UNL11       0.0777
     43 H         123.9408  152.1835  144.8386 H       1  UNL11       0.0777
     44 H         113.8104  152.7226  147.1175 H       1  UNL11       0.0660
     45 H         114.8681  151.6432  148.0354 H       1  UNL11       0.0660
     46 H         114.5734  151.3679  146.2747 H       1  UNL11       0.0660
@<TRIPOS>UNITY_ATOM_ATTR
4 1
charge 1
@<TRIPOS>BOND
     1     1     7    1
     2     1    15    1
     3     2    11    1
     4     3    18    1
     5     3    22    1
     6     4     8    1
     7     4    20    1
     8     4    21    1
     9     5     6    1
    10     5     7    1
    11     5     9    1
    12     5    13    1
    13     6     8    1
    14     6    14    1
    15     7    11    1
    16     8    10    1
    17     9    12   ar
    18     9    15   ar
    19    10    12    1
    20    11    16    1
    21    12    17   ar
    22    14    16    2
    23    15    18   ar
    24    17    19   ar
    25    18    19   ar
    26     2    23    1
    27     4    24    1
    28     6    25    1
    29     7    26    1
    30     8    27    1
    31    10    28    1
    32    10    29    1
    33    11    30    1
    34    13    31    1
    35    13    32    1
    36    13    33    1
    37    14    34    1
    38    16    35    1
    39    17    36    1
    40    19    37    1
    41    20    38    1
    42    20    39    1
    43    20    40    1
    44    21    41    1
    45    21    42    1
    46    21    43    1
    47    22    44    1
    48    22    45    1
    49    22    46    1
@<TRIPOS>MOLECULE
5324288
 44 48 0 0 0
SMALL
GASTEIGER

@<TRIPOS>ATOM
      1 O         118.0689  153.7671  145.4050 O.3     1  UNL11      -0.4811
      2 O         118.7468  156.9043  146.4829 O.3     1  UNL11      -0.3841
      3 O         116.1613  151.4950  146.2104 O.3     1  UNL11      -0.4914
      4 N         123.0708  152.5270  145.8331 N.4     1  UNL11       0.2359
      5 C         120.4230  153.7313  145.8934 C.3     1  UNL11       0.0553
      6 C         121.5319  154.2043  146.8408 C.3     1  UNL11       0.0339
      7 C         122.4053  152.9547  147.1641 C.3     1  UNL11      -0.0097
      8 C         119.2101  154.6564  145.6896 C.3     1  UNL11       0.1402
      9 C         121.0553  153.2827  144.5559 C.3     1  UNL11       0.0015
     10 C         119.6827  152.5796  146.4852 C.ar    1  UNL11       0.0120
     11 C         121.6161  151.7880  147.8355 C.3     1  UNL11       0.0165
     12 C         122.0980  152.1778  144.7280 C.3     1  UNL11      -0.0309
     13 C         120.2168  151.6109  147.3152 C.ar    1  UNL11      -0.0345
     14 C         118.8414  155.5458  146.9107 C.3     1  UNL11       0.1110
     15 C         121.0153  154.9391  148.0439 C.2     1  UNL11      -0.0761
     16 C         118.3476  152.6236  146.1180 C.ar    1  UNL11       0.1666
     17 C         119.8192  155.5453  148.0493 C.2     1  UNL11      -0.0558
     18 C         124.1344  151.4723  145.9957 C.3     1  UNL11      -0.0428
     19 C         119.3682  150.5756  147.6976 C.ar    1  UNL11      -0.0544
     20 C         117.4884  151.6113  146.4936 C.ar    1  UNL11       0.1618
     21 C         118.0260  150.5664  147.2642 C.ar    1  UNL11      -0.0160
     22 C         115.4703  152.7044  145.9200 C.3     1  UNL11       0.0790
     23 H         117.8902  157.0030  146.0294 H       1  UNL11       0.2104
     24 H         123.5842  153.3572  145.5047 H       1  UNL11       0.2034
     25 H         122.1664  154.9339  146.3155 H       1  UNL11       0.0408
     26 H         123.2413  153.2432  147.8134 H       1  UNL11       0.0860
     27 H         119.3457  155.2836  144.7995 H       1  UNL11       0.0772
     28 H         121.5323  154.1503  144.0805 H       1  UNL11       0.0327
     29 H         120.2924  152.9311  143.8492 H       1  UNL11       0.0327
     30 H         121.5296  152.0220  148.9049 H       1  UNL11       0.0368
     31 H         122.1613  150.8425  147.7640 H       1  UNL11       0.0368
     32 H         121.6471  151.2099  144.9683 H       1  UNL11       0.0815
     33 H         122.6841  152.0650  143.8092 H       1  UNL11       0.0815
     34 H         117.8590  155.2647  147.3095 H       1  UNL11       0.0675
     35 H         121.6588  155.0506  148.9150 H       1  UNL11       0.0575
     36 H         119.5141  156.1094  148.9299 H       1  UNL11       0.0596
     37 H         123.6597  150.5106  146.2008 H       1  UNL11       0.0778
     38 H         124.7926  151.7737  146.8144 H       1  UNL11       0.0778
     39 H         124.7009  151.4256  145.0617 H       1  UNL11       0.0778
     40 H         119.7144  149.7768  148.3507 H       1  UNL11       0.0622
     41 H         117.3732  149.7508  147.5744 H       1  UNL11       0.0655
     42 H         114.3976  152.4920  145.9651 H       1  UNL11       0.0660
     43 H         115.6966  153.0506  144.9074 H       1  UNL11       0.0660
     44 H         115.6826  153.4792  146.6652 H       1  UNL11       0.0660
@<TRIPOS>UNITY_ATOM_ATTR
4 1
charge 1
@<TRIPOS>BOND
     1     1     8    1
     2     1    16    1
     3     2    14    1
     4     3    20    1
     5     3    22    1
     6     4     7    1
     7     4    12    1
     8     4    18    1
     9     5     6    1
    10     5     8    1
    11     5     9    1
    12     5    10    1
    13     6     7    1
    14     6    15    1
    15     7    11    1
    16     8    14    1
    17     9    12    1
    18    10    13   ar
    19    10    16   ar
    20    11    13    1
    21    13    19   ar
    22    14    17    1
    23    15    17    2
    24    16    20   ar
    25    19    21   ar
    26    20    21   ar
    27     2    23    1
    28     4    24    1
    29     6    25    1
    30     7    26    1
    31     8    27    1
    32     9    28    1
    33     9    29    1
    34    11    30    1
    35    11    31    1
    36    12    32    1
    37    12    33    1
    38    14    34    1
    39    15    35    1
    40    17    36    1
    41    18    37    1
    42    18    38    1
    43    18    39    1
    44    19    40    1
    45    21    41    1
    46    22    42    1
    47    22    43    1
    48    22    44    1
@<TRIPOS>MOLECULE
7240
 14 14 0 0 0
SMALL
GASTEIGER

@<TRIPOS>ATOM
      1 CL        122.1067  151.8139  146.4081 Cl      1  UNL111     -0.0816
      2 N         121.4238  154.7840  146.4090 N.pl3   1  UNL111     -0.3568
      3 C         120.3491  153.9052  146.4077 C.ar    1  UNL111      0.0431
      4 C         120.5212  152.5089  146.4079 C.ar    1  UNL111      0.0616
      5 C         119.0444  154.4102  146.4080 C.ar    1  UNL111     -0.0396
      6 C         119.4206  151.6471  146.4079 C.ar    1  UNL111     -0.0416
      7 C         117.9413  153.5509  146.4079 C.ar    1  UNL111     -0.0599
      8 C         118.1287  152.1703  146.4078 C.ar    1  UNL111     -0.0603
      9 H         122.3643  154.4066  146.4074 H       1  UNL111      0.1424
     10 H         121.2911  155.7843  146.4069 H       1  UNL111      0.1424
     11 H         118.8750  155.4839  146.4083 H       1  UNL111      0.0636
     12 H         119.5659  150.5704  146.4079 H       1  UNL111      0.0633
     13 H         116.9351  153.9629  146.4081 H       1  UNL111      0.0618
     14 H         117.2705  151.5032  146.4079 H       1  UNL111      0.0618
@<TRIPOS>BOND
     1     1     4    1
     2     2     3    1
     3     3     4   ar
     4     3     5   ar
     5     4     6   ar
     6     5     7   ar
     7     6     8   ar
     8     7     8   ar
     9     2     9    1
    10     2    10    1
    11     5    11    1
    12     6    12    1
    13     7    13    1
    14     8    14    1
@<TRIPOS>MOLECULE
522741
 57 62 0 0 0
SMALL
GASTEIGER

@<TRIPOS>ATOM
      1 O         120.2103  154.2065  145.3233 O.2     1  UNL11      -0.4803
      2 O         117.6787  152.8483  146.4336 O.3     1  UNL11      -0.4541
      3 O         121.3310  157.0023  145.8712 O.2     1  UNL11      -0.4914
      4 O         116.9293  153.7331  148.4102 O.2     1  UNL11      -0.2449
      5 N         123.6603  150.4067  145.9656 N.4     1  UNL11       0.2357
      6 N         113.9938  152.7904  144.7276 N.pl3   1  UNL11      -0.2624
      7 C         121.3689  152.1920  145.9419 C.3     1  UNL11       0.0526
      8 C         121.5060  151.0735  146.9760 C.3     1  UNL11       0.0159
      9 C         119.9763  152.8074  145.7152 C.3     1  UNL11       0.1473
     10 C         123.0182  150.9064  147.2792 C.3     1  UNL11      -0.0132
     11 C         122.0295  151.7417  144.6184 C.3     1  UNL11       0.0012
     12 C         122.0466  153.4255  146.4243 C.3     1  UNL11       0.0117
     13 C         120.6420  151.3111  148.2173 C.3     1  UNL11      -0.0407
     14 C         119.0325  152.7992  146.9444 C.3     1  UNL11       0.1408
     15 C         123.7069  152.1998  147.8177 C.3     1  UNL11       0.0162
     16 C         119.1914  151.5389  147.8010 C.3     1  UNL11      -0.0116
     17 C         123.4952  151.3424  144.7870 C.3     1  UNL11      -0.0309
     18 C         123.1805  153.4741  147.2156 C.3     1  UNL11      -0.0345
     19 C         121.3687  154.5503  145.9834 C.3     1  UNL11       0.1666
     20 C         125.0895  149.9530  146.1201 C.3     1  UNL11      -0.0428
     21 C         123.7071  154.7360  147.4790 C.3     1  UNL11      -0.0544
     22 C         121.8692  155.8087  146.2460 C.3     1  UNL11       0.1618
     23 C         123.0697  155.8874  146.9712 C.3     1  UNL11      -0.0160
     24 C         116.7318  153.3327  147.2751 C.2     1  UNL11       0.3410
     25 C         115.3938  153.2566  146.6497 C.3     1  UNL11       0.0770
     26 C         119.9077  157.0398  145.8239 C.3     1  UNL11       0.0790
     27 C         114.2576  153.5398  147.4113 C.3     1  UNL11      -0.0449
     28 C         115.2083  152.8953  145.3212 C.3     1  UNL11       0.0415
     29 C         112.9964  153.4431  146.8256 C.3     1  UNL11      -0.0428
     30 C         112.9155  153.0669  145.4941 C.3     1  UNL11       0.0276
     31 H         123.1497  149.5483  145.7168 H       1  UNL11       0.2033
     32 H         121.1370  150.1384  146.5281 H       1  UNL11       0.0365
     33 H         119.4741  152.3232  144.8679 H       1  UNL11       0.0780
     34 H         123.1668  150.0891  147.9951 H       1  UNL11       0.0857
     35 H         121.9699  152.5256  143.8523 H       1  UNL11       0.0327
     36 H         121.4721  150.8838  144.2187 H       1  UNL11       0.0327
     37 H         120.9950  152.1668  148.8035 H       1  UNL11       0.0271
     38 H         120.6984  150.4350  148.8741 H       1  UNL11       0.0271
     39 H         119.2164  153.6930  147.5548 H       1  UNL11       0.0772
     40 H         124.7932  152.1550  147.6993 H       1  UNL11       0.0368
     41 H         123.5093  152.2527  148.8964 H       1  UNL11       0.0368
     42 H         118.5659  151.6186  148.6978 H       1  UNL11       0.0302
     43 H         118.8106  150.6664  147.2544 H       1  UNL11       0.0302
     44 H         123.8442  150.8041  143.8989 H       1  UNL11       0.0815
     45 H         124.1498  152.2050  144.9455 H       1  UNL11       0.0815
     46 H         125.7342  150.8263  146.2383 H       1  UNL11       0.0778
     47 H         125.3607  149.3988  145.2174 H       1  UNL11       0.0778
     48 H         125.1468  149.2949  146.9907 H       1  UNL11       0.0778
     49 H         124.5981  154.8571  148.0923 H       1  UNL11       0.0622
     50 H         123.4920  156.8686  147.1861 H       1  UNL11       0.0655
     51 H         119.6046  158.0914  145.8341 H       1  UNL11       0.0660
     52 H         119.4589  156.5588  146.7006 H       1  UNL11       0.0660
     53 H         119.5370  156.5976  144.8950 H       1  UNL11       0.0660
     54 H         114.3481  153.8300  148.4558 H       1  UNL11       0.0627
     55 H         116.0413  152.6697  144.6622 H       1  UNL11       0.0838
     56 H         112.0973  153.6545  147.3952 H       1  UNL11       0.0633
     57 H         111.9543  152.9757  144.9946 H       1  UNL11       0.0829
@<TRIPOS>UNITY_ATOM_ATTR
5 1
charge 1
@<TRIPOS>BOND
     1     1     9    1
     2     1    19    1
     3     2    14    1
     4     2    24    1
     5     3    22    1
     6     3    26    1
     7     4    24    2
     8     5    10    1
     9     5    17    1
    10     5    20    1
    11     6    28   ar
    12     6    30   ar
    13     7     8    1
    14     7     9    1
    15     7    11    1
    16     7    12    1
    17     8    10    1
    18     8    13    1
    19     9    14    1
    20    10    15    1
    21    11    17    1
    22    12    18   ar
    23    12    19   ar
    24    13    16    1
    25    14    16    1
    26    15    18    1
    27    18    21   ar
    28    19    22   ar
    29    21    23   ar
    30    22    23   ar
    31    24    25    1
    32    25    27   ar
    33    25    28   ar
    34    27    29   ar
    35    29    30   ar
    36     5    31    1
    37     8    32    1
    38     9    33    1
    39    10    34    1
    40    11    35    1
    41    11    36    1
    42    13    37    1
    43    13    38    1
    44    14    39    1
    45    15    40    1
    46    15    41    1
    47    16    42    1
    48    16    43    1
    49    17    44    1
    50    17    45    1
    51    20    46    1
    52    20    47    1
    53    20    48    1
    54    21    49    1
    55    23    50    1
    56    26    51    1
    57    26    52    1
    58    26    53    1
    59    27    54    1
    60    28    55    1
    61    29    56    1
    62    30    57    1
@<TRIPOS>MOLECULE
5486612
 43 47 0 0 0
SMALL
GASTEIGER

@<TRIPOS>ATOM
      1 CL        120.8927  157.3158  146.5487 Cl      1  UNL11      -0.1135
      2 O         121.5602  153.8446  147.6435 O.3     1  UNL11      -0.4822
      3 O         123.5080  151.7125  147.1075 O.3     1  UNL11      -0.4914
      4 N         116.5932  152.5493  146.9161 N.4     1  UNL11       0.2359
      5 C         119.2363  153.7622  147.0048 C.3     1  UNL11       0.0542
      6 C         118.1942  154.1943  145.9652 C.3     1  UNL11       0.0339
      7 C         117.3529  152.9264  145.6226 C.3     1  UNL11      -0.0097
      8 C         120.4256  154.7121  147.2710 C.3     1  UNL11       0.1305
      9 C         118.5221  153.3265  148.3057 C.3     1  UNL11       0.0014
     10 C         120.0296  152.6124  146.4847 C.ar    1  UNL11       0.0120
     11 C         118.1951  151.7376  145.0532 C.3     1  UNL11       0.0165
     12 C         117.4895  152.2185  148.0886 C.3     1  UNL11      -0.0309
     13 C         119.5785  151.6215  145.6331 C.ar    1  UNL11      -0.0345
     14 C         120.8581  155.5876  146.0588 C.3     1  UNL11       0.0897
     15 C         118.7970  154.8808  144.7725 C.2     1  UNL11      -0.0771
     16 C         121.3332  152.6912  146.9337 C.ar    1  UNL11       0.1665
     17 C         119.9836  155.5018  144.8322 C.2     1  UNL11      -0.0664
     18 C         115.5178  151.5136  146.7124 C.3     1  UNL11      -0.0428
     19 C         120.4891  150.6175  145.2960 C.ar    1  UNL11      -0.0544
     20 C         122.2396  151.7067  146.6124 C.ar    1  UNL11       0.1618
     21 C         121.8056  150.6482  145.8056 C.ar    1  UNL11      -0.0160
     22 C         124.3905  152.4051  146.2245 C.3     1  UNL11       0.0790
     23 H         116.0739  153.3953  147.1907 H       1  UNL11       0.2034
     24 H         117.5217  154.9389  146.4165 H       1  UNL11       0.0408
     25 H         116.5660  153.1847  144.9031 H       1  UNL11       0.0860
     26 H         120.2182  155.3356  148.1494 H       1  UNL11       0.0760
     27 H         118.0181  154.1997  148.7411 H       1  UNL11       0.0327
     28 H         119.2408  152.9829  149.0611 H       1  UNL11       0.0327
     29 H         118.3149  151.9070  143.9752 H       1  UNL11       0.0368
     30 H         117.6703  150.7848  145.1671 H       1  UNL11       0.0368
     31 H         117.9504  151.2447  147.8963 H       1  UNL11       0.0815
     32 H         116.8443  152.1275  148.9695 H       1  UNL11       0.0815
     33 H         121.8853  155.3440  145.7654 H       1  UNL11       0.0546
     34 H         118.2294  154.9252  143.8437 H       1  UNL11       0.0574
     35 H         120.3615  156.0069  143.9427 H       1  UNL11       0.0585
     36 H         115.9803  150.5470  146.5054 H       1  UNL11       0.0778
     37 H         114.8866  151.8392  145.8815 H       1  UNL11       0.0778
     38 H         114.9246  151.4640  147.6296 H       1  UNL11       0.0778
     39 H         120.2051  149.8064  144.6278 H       1  UNL11       0.0622
     40 H         122.5023  149.8526  145.5486 H       1  UNL11       0.0655
     41 H         125.3905  152.3884  146.6686 H       1  UNL11       0.0660
     42 H         124.0916  153.4517  146.1002 H       1  UNL11       0.0660
     43 H         124.4451  151.9060  145.2506 H       1  UNL11       0.0660
@<TRIPOS>UNITY_ATOM_ATTR
4 1
charge 1
@<TRIPOS>BOND
     1     1    14    1
     2     2     8    1
     3     2    16    1
     4     3    20    1
     5     3    22    1
     6     4     7    1
     7     4    12    1
     8     4    18    1
     9     5     6    1
    10     5     8    1
    11     5     9    1
    12     5    10    1
    13     6     7    1
    14     6    15    1
    15     7    11    1
    16     8    14    1
    17     9    12    1
    18    10    13   ar
    19    10    16   ar
    20    11    13    1
    21    13    19   ar
    22    14    17    1
    23    15    17    2
    24    16    20   ar
    25    19    21   ar
    26    20    21   ar
    27     4    23    1
    28     6    24    1
    29     7    25    1
    30     8    26    1
    31     9    27    1
    32     9    28    1
    33    11    29    1
    34    11    30    1
    35    12    31    1
    36    12    32    1
    37    14    33    1
    38    15    34    1
    39    17    35    1
    40    18    36    1
    41    18    37    1
    42    18    38    1
    43    19    39    1
    44    21    40    1
    45    22    41    1
    46    22    42    1
    47    22    43    1
@<TRIPOS>MOLECULE
5493384
 49 53 0 0 0
SMALL
GASTEIGER

@<TRIPOS>ATOM
      1 O         118.1868  153.5413  145.3252 O.3     1  UNL11      -0.4814
      2 O         117.7063  156.1463  146.1854 O.3     1  UNL11      -0.3761
      3 O         116.5113  151.3449  145.8624 O.3     1  UNL11      -0.4914
      4 N         123.3651  152.9597  145.9837 N.4     1  UNL11       0.2357
      5 C         120.5648  153.6826  145.7880 C.3     1  UNL11       0.0516
      6 C         121.4491  154.2376  146.9093 C.3     1  UNL11       0.0158
      7 C         119.2977  154.4874  145.4315 C.3     1  UNL11       0.1366
      8 C         122.5013  153.1404  147.2487 C.3     1  UNL11      -0.0132
      9 C         121.3975  153.3821  144.5249 C.3     1  UNL11       0.0012
     10 C         119.9303  152.4393  146.3010 C.ar    1  UNL11       0.0117
     11 C         120.6582  154.7057  148.1528 C.3     1  UNL11      -0.0417
     12 C         119.0187  155.6412  146.4278 C.3     1  UNL11       0.0959
     13 C         121.8752  151.7852  147.7183 C.3     1  UNL11       0.0162
     14 C         119.2286  155.1923  147.8752 C.3     1  UNL11      -0.0226
     15 C         122.5919  152.4715  144.7812 C.3     1  UNL11      -0.0309
     16 C         120.5161  151.5016  147.1333 C.ar    1  UNL11      -0.0345
     17 C         118.5998  152.3913  145.9466 C.ar    1  UNL11       0.1665
     18 C         124.6181  152.1530  146.2094 C.3     1  UNL11      -0.0428
     19 C         119.7392  150.3997  147.4902 C.ar    1  UNL11      -0.0544
     20 C         117.8052  151.3107  146.2873 C.ar    1  UNL11       0.1618
     21 C         118.4010  150.2953  147.0495 C.ar    1  UNL11      -0.0160
     22 C         117.4196  157.3894  146.8089 C.3     1  UNL11       0.0370
     23 C         115.6625  150.2799  146.2683 C.3     1  UNL11       0.0790
     24 H         123.7097  153.8986  145.7405 H       1  UNL11       0.2033
     25 H         121.9742  155.1241  146.5242 H       1  UNL11       0.0365
     26 H         119.3818  154.9393  144.4344 H       1  UNL11       0.0768
     27 H         123.1930  153.5113  148.0145 H       1  UNL11       0.0857
     28 H         121.7645  154.3316  144.1121 H       1  UNL11       0.0327
     29 H         120.7763  152.9269  143.7424 H       1  UNL11       0.0327
     30 H         121.2246  155.5252  148.6152 H       1  UNL11       0.0271
     31 H         120.6112  153.9276  148.9230 H       1  UNL11       0.0271
     32 H         119.7389  156.4416  146.2083 H       1  UNL11       0.0633
     33 H         121.7487  151.8447  148.8073 H       1  UNL11       0.0368
     34 H         122.5406  150.9388  147.5267 H       1  UNL11       0.0368
     35 H         118.9969  156.0023  148.5756 H       1  UNL11       0.0291
     36 H         118.5094  154.4006  148.1197 H       1  UNL11       0.0291
     37 H         122.2997  151.4323  144.9611 H       1  UNL11       0.0815
     38 H         123.2757  152.4946  143.9255 H       1  UNL11       0.0815
     39 H         124.3536  151.1018  146.3394 H       1  UNL11       0.0778
     40 H         125.1238  152.5481  147.0938 H       1  UNL11       0.0778
     41 H         125.2562  152.2789  145.3304 H       1  UNL11       0.0778
     42 H         120.1374  149.6240  148.1421 H       1  UNL11       0.0622
     43 H         117.8348  149.4205  147.3582 H       1  UNL11       0.0655
     44 H         116.4651  157.7534  146.4187 H       1  UNL11       0.0524
     45 H         118.1924  158.1292  146.5801 H       1  UNL11       0.0524
     46 H         117.3174  157.2676  147.8900 H       1  UNL11       0.0524
     47 H         114.6636  150.4757  145.8668 H       1  UNL11       0.0660
     48 H         115.5804  150.2339  147.3593 H       1  UNL11       0.0660
     49 H         116.0059  149.3248  145.8576 H       1  UNL11       0.0660
@<TRIPOS>UNITY_ATOM_ATTR
4 1
charge 1
@<TRIPOS>BOND
     1     1     7    1
     2     1    17    1
     3     2    12    1
     4     2    22    1
     5     3    20    1
     6     3    23    1
     7     4     8    1
     8     4    15    1
     9     4    18    1
    10     5     6    1
    11     5     7    1
    12     5     9    1
    13     5    10    1
    14     6     8    1
    15     6    11    1
    16     7    12    1
    17     8    13    1
    18     9    15    1
    19    10    16   ar
    20    10    17   ar
    21    11    14    1
    22    12    14    1
    23    13    16    1
    24    16    19   ar
    25    17    20   ar
    26    19    21   ar
    27    20    21   ar
    28     4    24    1
    29     6    25    1
    30     7    26    1
    31     8    27    1
    32     9    28    1
    33     9    29    1
    34    11    30    1
    35    11    31    1
    36    12    32    1
    37    13    33    1
    38    13    34    1
    39    14    35    1
    40    14    36    1
    41    15    37    1
    42    15    38    1
    43    18    39    1
    44    18    40    1
    45    18    41    1
    46    19    42    1
    47    21    43    1
    48    22    44    1
    49    22    45    1
    50    22    46    1
    51    23    47    1
    52    23    48    1
    53    23    49    1
@<TRIPOS>MOLECULE
5745686
 41 45 0 0 0
SMALL
GASTEIGER

@<TRIPOS>ATOM
      1 CL        120.1417  156.9030  145.0077 Cl      1  UNL11      -0.0831
      2 O         117.9098  152.2195  147.7080 O.3     1  UNL11      -0.4811
      3 O         117.0767  151.3223  145.3863 O.3     1  UNL11      -0.3841
      4 O         116.4142  154.7355  147.6777 O.3     1  UNL11      -0.5033
      5 N         122.9947  152.7931  146.9496 N.4     1  UNL11       0.2359
      6 C         120.1988  151.9876  146.9611 C.3     1  UNL11       0.0553
      7 C         121.1480  151.5409  145.8447 C.3     1  UNL11       0.0339
      8 C         122.1694  152.7001  145.6401 C.3     1  UNL11      -0.0097
      9 C         118.8538  151.2449  147.1208 C.3     1  UNL11       0.1402
     10 C         120.9963  152.0784  148.2838 C.3     1  UNL11       0.0015
     11 C         119.6217  153.3305  146.6706 C.ar    1  UNL11       0.0134
     12 C         121.5150  154.0614  145.2501 C.3     1  UNL11       0.0179
     13 C         122.1802  153.0450  148.1997 C.3     1  UNL11      -0.0309
     14 C         120.2169  154.3551  145.9558 C.ar    1  UNL11      -0.0162
     15 C         118.2611  150.6488  145.8015 C.3     1  UNL11       0.1110
     16 C         120.4443  151.0871  144.6015 C.2     1  UNL11      -0.0761
     17 C         118.3514  153.4206  147.2019 C.ar    1  UNL11       0.1664
     18 C         119.1685  150.6766  144.6066 C.2     1  UNL11      -0.0558
     19 C         124.1756  153.7280  146.8585 C.3     1  UNL11      -0.0428
     20 C         119.4965  155.5539  145.8651 C.ar    1  UNL11       0.0483
     21 C         117.6519  154.6013  147.1363 C.ar    1  UNL11       0.1602
     22 C         118.2305  155.6837  146.4727 C.ar    1  UNL11       0.0021
     23 H         116.5774  151.5552  146.1895 H       1  UNL11       0.2104
     24 H         116.1729  153.8826  148.0828 H       1  UNL11       0.2923
     25 H         123.4205  151.8635  147.0712 H       1  UNL11       0.2034
     26 H         121.7072  150.6556  146.1834 H       1  UNL11       0.0408
     27 H         122.9004  152.4203  144.8712 H       1  UNL11       0.0860
     28 H         118.9666  150.4265  147.8434 H       1  UNL11       0.0772
     29 H         121.3691  151.0786  148.5438 H       1  UNL11       0.0327
     30 H         120.3557  152.3885  149.1197 H       1  UNL11       0.0327
     31 H         121.2917  154.0213  144.1756 H       1  UNL11       0.0369
     32 H         122.2199  154.8842  145.3969 H       1  UNL11       0.0369
     33 H         121.8625  154.0924  148.1893 H       1  UNL11       0.0815
     34 H         122.8500  152.8976  149.0541 H       1  UNL11       0.0815
     35 H         117.9794  149.6068  145.9926 H       1  UNL11       0.0675
     36 H         121.0024  151.0327  143.6675 H       1  UNL11       0.0575
     37 H         118.7213  150.3311  143.6740 H       1  UNL11       0.0596
     38 H         123.8199  154.7602  146.8800 H       1  UNL11       0.0778
     39 H         124.7133  153.5100  145.9326 H       1  UNL11       0.0778
     40 H         124.8209  153.5302  147.7188 H       1  UNL11       0.0778
     41 H         117.6788  156.6186  146.4001 H       1  UNL11       0.0670
@<TRIPOS>UNITY_ATOM_ATTR
5 1
charge 1
@<TRIPOS>BOND
     1     1    20    1
     2     2     9    1
     3     2    17    1
     4     3    15    1
     5     4    21    1
     6     5     8    1
     7     5    13    1
     8     5    19    1
     9     6     7    1
    10     6     9    1
    11     6    10    1
    12     6    11    1
    13     7     8    1
    14     7    16    1
    15     8    12    1
    16     9    15    1
    17    10    13    1
    18    11    14   ar
    19    11    17   ar
    20    12    14    1
    21    14    20   ar
    22    15    18    1
    23    16    18    2
    24    17    21   ar
    25    20    22   ar
    26    21    22   ar
    27     3    23    1
    28     4    24    1
    29     5    25    1
    30     7    26    1
    31     8    27    1
    32     9    28    1
    33    10    29    1
    34    10    30    1
    35    12    31    1
    36    12    32    1
    37    13    33    1
    38    13    34    1
    39    15    35    1
    40    16    36    1
    41    18    37    1
    42    19    38    1
    43    19    39    1
    44    19    40    1
    45    22    41    1
@<TRIPOS>MOLECULE
10474390
 56 60 0 0 0
SMALL
GASTEIGER

@<TRIPOS>ATOM
      1 SI        115.7017  152.3095  146.0596 Si      1  UNL11       0.0000
      2 O         118.9348  153.5316  147.6284 O.3     1  UNL11       0.0000
      3 O         117.3376  152.5327  145.7636 O.3     1  UNL11       0.0000
      4 O         118.6976  156.3036  147.0761 O.3     1  UNL11       0.0000
      5 N         123.5793  151.4146  146.8261 N.4     1  UNL11       1.0000
      6 C         120.7582  152.1022  146.9760 C.3     1  UNL11       0.0000
      7 C         121.2681  151.0771  145.9564 C.3     1  UNL11       0.0000
      8 C         119.2468  152.1352  147.2920 C.3     1  UNL11       0.0000
      9 C         122.7064  151.5248  145.5521 C.3     1  UNL11       0.0000
     10 C         121.6240  152.0342  148.2545 C.3     1  UNL11       0.0000
     11 C         120.8586  153.4778  146.4060 C.ar    1  UNL11       0.0000
     12 C         122.7668  152.9445  144.9064 C.3     1  UNL11       0.0000
     13 C         123.1092  152.2693  147.9829 C.3     1  UNL11       0.0000
     14 C         118.3125  151.5737  146.1634 C.3     1  UNL11       0.0000
     15 C         121.8055  153.9306  145.5078 C.ar    1  UNL11       0.0000
     16 C         120.3330  150.8889  144.7976 C.2     1  UNL11       0.0000
     17 C         119.8199  154.2625  146.8685 C.ar    1  UNL11       0.0000
     18 C         119.0167  151.1220  144.9053 C.2     1  UNL11       0.0000
     19 C         121.7289  155.2726  145.1392 C.ar    1  UNL11       0.0000
     20 C         125.0541  151.5834  146.5702 C.3     1  UNL11       0.0000
     21 C         119.7317  155.6008  146.5351 C.ar    1  UNL11       0.0000
     22 C         120.7126  156.1039  145.6658 C.ar    1  UNL11       0.0000
     23 C         114.8481  153.9702  146.2717 C.3     1  UNL11       0.0000
     24 C         115.3762  151.2918  147.6079 C.3     1  UNL11       0.0000
     25 C         114.9212  151.4195  144.5961 C.3     1  UNL11       0.0000
     26 C         118.5334  157.6483  146.6451 C.3     1  UNL11       0.0000
     27 H         123.4860  150.4390  147.1407 H       1  UNL11       0.0000
     28 H         121.3402  150.0906  146.4376 H       1  UNL11       0.0000
     29 H         119.0456  151.5511  148.1996 H       1  UNL11       0.0000
     30 H         123.1390  150.7959  144.8554 H       1  UNL11       0.0000
     31 H         121.4978  151.0457  148.7159 H       1  UNL11       0.0000
     32 H         121.2908  152.7639  149.0040 H       1  UNL11       0.0000
     33 H         122.4937  152.8372  143.8482 H       1  UNL11       0.0000
     34 H         123.7811  153.3528  144.9298 H       1  UNL11       0.0000
     35 H         123.3342  153.3138  147.7456 H       1  UNL11       0.0000
     36 H         123.7029  151.9804  148.8572 H       1  UNL11       0.0000
     37 H         117.8403  150.6640  146.5589 H       1  UNL11       0.0000
     38 H         120.7202  150.5146  143.8519 H       1  UNL11       0.0000
     39 H         118.3768  150.9454  144.0416 H       1  UNL11       0.0000
     40 H         122.4333  155.6953  144.4248 H       1  UNL11       0.0000
     41 H         125.2672  152.6350  146.3684 H       1  UNL11       0.0000
     42 H         125.3281  150.9514  145.7218 H       1  UNL11       0.0000
     43 H         125.5862  151.2523  147.4663 H       1  UNL11       0.0000
     44 H         120.7002  157.1434  145.3486 H       1  UNL11       0.0000
     45 H         115.2500  154.4995  147.1407 H       1  UNL11       0.0000
     46 H         113.7727  153.8333  146.4203 H       1  UNL11       0.0000
     47 H         114.9965  154.5967  145.3876 H       1  UNL11       0.0000
     48 H         115.8834  151.7296  148.4724 H       1  UNL11       0.0000
     49 H         115.7275  150.2633  147.4837 H       1  UNL11       0.0000
     50 H         114.3034  151.2558  147.8207 H       1  UNL11       0.0000
     51 H         115.0500  152.0051  143.6809 H       1  UNL11       0.0000
     52 H         113.8507  151.2675  144.7610 H       1  UNL11       0.0000
     53 H         115.3906  150.4426  144.4472 H       1  UNL11       0.0000
     54 H         117.6422  158.0515  147.1353 H       1  UNL11       0.0000
     55 H         118.3721  157.7007  145.5631 H       1  UNL11       0.0000
     56 H         119.3869  158.2646  146.9467 H       1  UNL11       0.0000
@<TRIPOS>UNITY_ATOM_ATTR
5 1
charge 1
@<TRIPOS>BOND
     1     1     3    1
     2     1    23    1
     3     1    24    1
     4     1    25    1
     5     2     8    1
     6     2    17    1
     7     3    14    1
     8     4    21    1
     9     4    26    1
    10     5     9    1
    11     5    13    1
    12     5    20    1
    13     6     7    1
    14     6     8    1
    15     6    10    1
    16     6    11    1
    17     7     9    1
    18     7    16    1
    19     8    14    1
    20     9    12    1
    21    10    13    1
    22    11    15   ar
    23    11    17   ar
    24    12    15    1
    25    14    18    1
    26    15    19   ar
    27    16    18    2
    28    17    21   ar
    29    19    22   ar
    30    21    22   ar
    31     5    27    1
    32     7    28    1
    33     8    29    1
    34     9    30    1
    35    10    31    1
    36    10    32    1
    37    12    33    1
    38    12    34    1
    39    13    35    1
    40    13    36    1
    41    14    37    1
    42    16    38    1
    43    18    39    1
    44    19    40    1
    45    20    41    1
    46    20    42    1
    47    20    43    1
    48    22    44    1
    49    23    45    1
    50    23    46    1
    51    23    47    1
    52    24    48    1
    53    24    49    1
    54    24    50    1
    55    25    51    1
    56    25    52    1
    57    25    53    1
    58    26    54    1
    59    26    55    1
    60    26    56    1
@<TRIPOS>MOLECULE
154732851
 63 66 0 0 0
SMALL
GASTEIGER

@<TRIPOS>ATOM
      1 O         119.3236  153.1308  148.3662 O.3     1  UNL11      -0.4811
      2 O         119.7220  151.4053  146.0844 O.3     1  UNL11      -0.3666
      3 O         117.5442  155.1602  147.4816 O.3     1  UNL11      -0.4914
      4 O         116.7288  151.7813  145.7734 O.3     1  UNL11      -0.3752
      5 O         114.0931  152.8368  144.7634 O.3     1  UNL11      -0.3807
      6 N         124.2991  152.4751  144.9633 N.4     1  UNL11       0.2337
      7 C         121.7070  153.0372  147.8879 C.3     1  UNL11       0.0477
      8 C         122.8191  152.3250  147.0596 C.3     1  UNL11       0.0335
      9 C         120.4640  152.2143  148.2987 C.3     1  UNL11       0.1400
     10 C         122.9850  152.9527  145.6219 C.3     1  UNL11      -0.0100
     11 C         120.9873  154.0868  147.1199 C.ar    1  UNL11       0.0116
     12 C         122.8733  154.5035  145.6120 C.3     1  UNL11       0.0165
     13 C         120.1748  150.9998  147.3796 C.3     1  UNL11       0.1145
     14 C         121.5066  154.8635  146.1045 C.ar    1  UNL11      -0.0345
     15 C         122.3317  153.6918  149.1419 C.3     1  UNL11      -0.0512
     16 C         122.6416  150.8193  147.0099 C.2     1  UNL11      -0.0761
     17 C         119.6605  154.1522  147.5046 C.ar    1  UNL11       0.1665
     18 C         121.4468  150.2261  147.1526 C.2     1  UNL11      -0.0555
     19 C         120.6877  155.8556  145.5750 C.ar    1  UNL11      -0.0544
     20 C         118.8215  155.1317  147.0035 C.ar    1  UNL11       0.1618
     21 C         119.3602  155.9992  146.0378 C.ar    1  UNL11      -0.0160
     22 C         124.2438  152.5482  143.4573 C.3     1  UNL11      -0.0431
     23 C         125.5626  153.0946  145.4930 C.3     1  UNL11      -0.0431
     24 C         118.7753  150.5081  145.4824 C.3     1  UNL11       0.0719
     25 C         117.3804  150.5584  146.1169 C.3     1  UNL11       0.0711
     26 C         116.7418  156.2681  147.0936 C.3     1  UNL11       0.0790
     27 C         115.5054  151.9353  146.5063 C.3     1  UNL11       0.0711
     28 C         114.7420  153.1554  146.0000 C.3     1  UNL11       0.0706
     29 C         113.3667  153.9485  144.2571 C.3     1  UNL11       0.0365
     30 H         124.3564  151.4701  145.1687 H       1  UNL11       0.2031
     31 H         123.7640  152.4756  147.5966 H       1  UNL11       0.0408
     32 H         120.6070  151.8218  149.3155 H       1  UNL11       0.0772
     33 H         122.1901  152.5364  144.9861 H       1  UNL11       0.0860
     34 H         123.0153  154.8935  144.5990 H       1  UNL11       0.0368
     35 H         123.6230  154.9636  146.2652 H       1  UNL11       0.0368
     36 H         119.4356  150.3672  147.8812 H       1  UNL11       0.0678
     37 H         122.7967  152.9336  149.7823 H       1  UNL11       0.0240
     38 H         121.5882  154.2231  149.7482 H       1  UNL11       0.0240
     39 H         123.1034  154.4211  148.8679 H       1  UNL11       0.0240
     40 H         123.5178  150.1916  146.8632 H       1  UNL11       0.0575
     41 H         121.3604  149.1434  147.0938 H       1  UNL11       0.0596
     42 H         121.0431  156.5144  144.7856 H       1  UNL11       0.0622
     43 H         118.7564  156.7832  145.5895 H       1  UNL11       0.0655
     44 H         124.2145  153.5968  143.1533 H       1  UNL11       0.0777
     45 H         123.3541  152.0110  143.1195 H       1  UNL11       0.0777
     46 H         125.1400  152.0588  143.0657 H       1  UNL11       0.0777
     47 H         125.5938  154.1464  145.1985 H       1  UNL11       0.0777
     48 H         126.4076  152.5530  145.0588 H       1  UNL11       0.0777
     49 H         125.5838  152.9892  146.5786 H       1  UNL11       0.0777
     50 H         119.1737  149.4881  145.5184 H       1  UNL11       0.0583
     51 H         118.7031  150.8022  144.4299 H       1  UNL11       0.0583
     52 H         116.7803  149.7292  145.7255 H       1  UNL11       0.0583
     53 H         117.4346  150.4716  147.2058 H       1  UNL11       0.0583
     54 H         115.7795  156.1804  147.6070 H       1  UNL11       0.0660
     55 H         116.5451  156.2537  146.0164 H       1  UNL11       0.0660
     56 H         117.1981  157.2159  147.3981 H       1  UNL11       0.0660
     57 H         115.7555  152.0750  147.5638 H       1  UNL11       0.0583
     58 H         114.8936  151.0332  146.3889 H       1  UNL11       0.0583
     59 H         113.9776  153.4359  146.7332 H       1  UNL11       0.0582
     60 H         115.4268  153.9924  145.8372 H       1  UNL11       0.0582
     61 H         112.9041  153.6567  143.3108 H       1  UNL11       0.0524
     62 H         114.0375  154.7935  144.0731 H       1  UNL11       0.0524
     63 H         112.5775  154.2402  144.9569 H       1  UNL11       0.0524
@<TRIPOS>UNITY_ATOM_ATTR
6 1
charge 1
@<TRIPOS>BOND
     1     1     9    1
     2     1    17    1
     3     2    13    1
     4     2    24    1
     5     3    20    1
     6     3    26    1
     7     4    25    1
     8     4    27    1
     9     5    28    1
    10     5    29    1
    11     6    10    1
    12     6    22    1
    13     6    23    1
    14     7     8    1
    15     7     9    1
    16     7    11    1
    17     7    15    1
    18     8    10    1
    19     8    16    1
    20     9    13    1
    21    10    12    1
    22    11    14   ar
    23    11    17   ar
    24    12    14    1
    25    13    18    1
    26    14    19   ar
    27    16    18    2
    28    17    20   ar
    29    19    21   ar
    30    20    21   ar
    31    24    25    1
    32    27    28    1
    33     6    30    1
    34     8    31    1
    35     9    32    1
    36    10    33    1
    37    12    34    1
    38    12    35    1
    39    13    36    1
    40    15    37    1
    41    15    38    1
    42    15    39    1
    43    16    40    1
    44    18    41    1
    45    19    42    1
    46    21    43    1
    47    22    44    1
    48    22    45    1
    49    22    46    1
    50    23    47    1
    51    23    48    1
    52    23    49    1
    53    24    50    1
    54    24    51    1
    55    25    52    1
    56    25    53    1
    57    26    54    1
    58    26    55    1
    59    26    56    1
    60    27    57    1
    61    27    58    1
    62    28    59    1
    63    28    60    1
    64    29    61    1
    65    29    62    1
    66    29    63    1
@<TRIPOS>MOLECULE
154732852
 70 73 0 0 0
SMALL
GASTEIGER

@<TRIPOS>ATOM
      1 O         121.3636  155.5566  145.2475 O.3     1  UNL11      -0.4811
      2 O         120.9372  154.7445  147.8853 O.3     1  UNL11      -0.3666
      3 O         118.7290  155.5569  144.1866 O.3     1  UNL11      -0.4914
      4 O         118.4221  154.0017  148.9563 O.3     1  UNL11      -0.3752
      5 O         115.3184  152.4644  147.8309 O.3     1  UNL11      -0.3752
      6 O         113.4426  152.0227  145.5990 O.3     1  UNL11      -0.3807
      7 N         123.2863  150.0939  147.2252 N.4     1  UNL11       0.2337
      8 C         122.7811  153.5994  145.5176 C.3     1  UNL11       0.0477
      9 C         123.3648  152.5621  146.5217 C.3     1  UNL11       0.0335
     10 C         122.5011  155.0370  146.0152 C.3     1  UNL11       0.1400
     11 C         122.4572  151.2756  146.6621 C.3     1  UNL11      -0.0100
     12 C         121.3969  153.2751  145.0849 C.ar    1  UNL11       0.0116
     13 C         121.7164  150.8645  145.3601 C.3     1  UNL11       0.0165
     14 C         122.2524  155.1739  147.5391 C.3     1  UNL11       0.1145
     15 C         120.8628  152.0126  144.9288 C.ar    1  UNL11      -0.0345
     16 C         123.6805  153.6586  144.2597 C.3     1  UNL11      -0.0512
     17 C         123.7049  153.1568  147.8751 C.2     1  UNL11      -0.0761
     18 C         120.6631  154.4282  144.8778 C.ar    1  UNL11       0.1665
     19 C         123.2094  154.3193  148.3208 C.2     1  UNL11      -0.0555
     20 C         119.5698  151.9199  144.4244 C.ar    1  UNL11      -0.0544
     21 C         119.3706  154.3700  144.3853 C.ar    1  UNL11       0.1618
     22 C         118.8345  153.0930  144.1451 C.ar    1  UNL11      -0.0160
     23 C         122.4346  149.1054  147.9811 C.3     1  UNL11      -0.0431
     24 C         124.1826  149.3979  146.2358 C.3     1  UNL11      -0.0431
     25 C         120.4134  155.3618  149.0686 C.3     1  UNL11       0.0719
     26 C         118.8890  155.3535  148.9925 C.3     1  UNL11       0.0711
     27 C         117.4176  155.4950  143.6391 C.3     1  UNL11       0.0790
     28 C         117.0343  153.9459  148.6272 C.3     1  UNL11       0.0711
     29 C         116.6864  152.5216  148.2193 C.3     1  UNL11       0.0711
     30 C         114.9783  151.1949  147.2656 C.3     1  UNL11       0.0711
     31 C         113.5284  151.2292  146.7884 C.3     1  UNL11       0.0706
     32 C         112.0948  152.1763  145.1735 C.3     1  UNL11       0.0365
     33 H         123.9041  150.5024  147.9369 H       1  UNL11       0.2031
     34 H         124.3356  152.2409  146.1227 H       1  UNL11       0.0408
     35 H         123.3622  155.6757  145.7735 H       1  UNL11       0.0772
     36 H         121.7058  151.4870  147.4373 H       1  UNL11       0.0860
     37 H         121.0918  149.9826  145.5373 H       1  UNL11       0.0368
     38 H         122.4197  150.6265  144.5544 H       1  UNL11       0.0368
     39 H         122.3818  156.2332  147.7925 H       1  UNL11       0.0678
     40 H         124.6911  153.9904  144.5245 H       1  UNL11       0.0240
     41 H         123.2944  154.3537  143.5045 H       1  UNL11       0.0240
     42 H         123.7645  152.6761  143.7807 H       1  UNL11       0.0240
     43 H         124.3904  152.6169  148.5250 H       1  UNL11       0.0575
     44 H         123.4740  154.6770  149.3142 H       1  UNL11       0.0596
     45 H         119.1011  150.9532  144.2539 H       1  UNL11       0.0622
     46 H         117.8258  152.9711  143.7590 H       1  UNL11       0.0655
     47 H         121.7397  148.6303  147.2852 H       1  UNL11       0.0777
     48 H         121.9023  149.6451  148.7681 H       1  UNL11       0.0777
     49 H         123.1002  148.3622  148.4289 H       1  UNL11       0.0777
     50 H         123.5661  148.8149  145.5468 H       1  UNL11       0.0777
     51 H         124.8508  148.7389  146.7970 H       1  UNL11       0.0777
     52 H         124.7698  150.1457  145.7000 H       1  UNL11       0.0777
     53 H         120.7552  156.3990  149.1574 H       1  UNL11       0.0583
     54 H         120.7588  154.7880  149.9346 H       1  UNL11       0.0583
     55 H         118.4617  155.8567  149.8666 H       1  UNL11       0.0583
     56 H         118.5764  155.8766  148.0810 H       1  UNL11       0.0583
     57 H         117.0538  156.5201  143.5218 H       1  UNL11       0.0660
     58 H         116.7320  154.9729  144.3151 H       1  UNL11       0.0660
     59 H         117.4250  155.0295  142.6475 H       1  UNL11       0.0660
     60 H         116.7988  154.6229  147.7965 H       1  UNL11       0.0583
     61 H         116.4374  154.2590  149.4915 H       1  UNL11       0.0583
     62 H         117.3331  152.2163  147.3873 H       1  UNL11       0.0583
     63 H         116.8682  151.8332  149.0527 H       1  UNL11       0.0583
     64 H         115.0997  150.4248  148.0347 H       1  UNL11       0.0583
     65 H         115.6459  150.9839  146.4222 H       1  UNL11       0.0583
     66 H         113.1933  150.2131  146.5548 H       1  UNL11       0.0582
     67 H         112.8873  151.6627  147.5642 H       1  UNL11       0.0582
     68 H         112.0835  152.8222  144.2916 H       1  UNL11       0.0524
     69 H         111.4933  152.6466  145.9576 H       1  UNL11       0.0524
     70 H         111.6697  151.2052  144.9032 H       1  UNL11       0.0524
@<TRIPOS>UNITY_ATOM_ATTR
7 1
charge 1
@<TRIPOS>BOND
     1     1    10    1
     2     1    18    1
     3     2    14    1
     4     2    25    1
     5     3    21    1
     6     3    27    1
     7     4    26    1
     8     4    28    1
     9     5    29    1
    10     5    30    1
    11     6    31    1
    12     6    32    1
    13     7    11    1
    14     7    23    1
    15     7    24    1
    16     8     9    1
    17     8    10    1
    18     8    12    1
    19     8    16    1
    20     9    11    1
    21     9    17    1
    22    10    14    1
    23    11    13    1
    24    12    15   ar
    25    12    18   ar
    26    13    15    1
    27    14    19    1
    28    15    20   ar
    29    17    19    2
    30    18    21   ar
    31    20    22   ar
    32    21    22   ar
    33    25    26    1
    34    28    29    1
    35    30    31    1
    36     7    33    1
    37     9    34    1
    38    10    35    1
    39    11    36    1
    40    13    37    1
    41    13    38    1
    42    14    39    1
    43    16    40    1
    44    16    41    1
    45    16    42    1
    46    17    43    1
    47    19    44    1
    48    20    45    1
    49    22    46    1
    50    23    47    1
    51    23    48    1
    52    23    49    1
    53    24    50    1
    54    24    51    1
    55    24    52    1
    56    25    53    1
    57    25    54    1
    58    26    55    1
    59    26    56    1
    60    27    57    1
    61    27    58    1
    62    27    59    1
    63    28    60    1
    64    28    61    1
    65    29    62    1
    66    29    63    1
    67    30    64    1
    68    30    65    1
    69    31    66    1
    70    31    67    1
    71    32    68    1
    72    32    69    1
    73    32    70    1
@<TRIPOS>MOLECULE
154732853
 77 80 0 0 0
SMALL
GASTEIGER

@<TRIPOS>ATOM
      1 O         124.2555  152.8711  147.9523 O.3     1  UNL11      -0.4811
      2 O         121.6341  154.1107  147.7325 O.3     1  UNL11      -0.3666
      3 O         125.7952  154.2550  146.0381 O.3     1  UNL11      -0.4914
      4 O         119.7427  155.6699  146.1682 O.3     1  UNL11      -0.3752
      5 O         116.9453  155.5888  145.6362 O.3     1  UNL11      -0.3752
      6 O         113.8269  153.7277  145.6390 O.3     1  UNL11      -0.3752
      7 O         111.0450  151.8632  147.0992 O.3     1  UNL11      -0.3807
      8 N         118.8961  151.0354  145.9403 N.4     1  UNL11       0.2337
      9 C         122.5270  151.2227  147.4859 C.3     1  UNL11       0.0477
     10 C         120.9840  150.9859  147.4317 C.3     1  UNL11       0.0335
     11 C         123.0482  152.2612  148.5093 C.3     1  UNL11       0.1400
     12 C         120.3562  151.5083  146.0841 C.3     1  UNL11      -0.0100
     13 C         123.0613  151.8869  146.2652 C.ar    1  UNL11       0.0116
     14 C         121.2135  151.1342  144.8407 C.3     1  UNL11       0.0165
     15 C         121.9884  153.3300  148.8803 C.3     1  UNL11       0.1145
     16 C         122.5390  151.8177  144.9896 C.ar    1  UNL11      -0.0345
     17 C         123.2612  149.8799  147.6853 C.3     1  UNL11      -0.0512
     18 C         120.2717  151.5433  148.6528 C.2     1  UNL11      -0.0761
     19 C         124.0957  152.7461  146.5893 C.ar    1  UNL11       0.1665
     20 C         120.7319  152.6195  149.3111 C.2     1  UNL11      -0.0555
     21 C         123.2193  152.4929  143.9789 C.ar    1  UNL11      -0.0544
     22 C         124.7828  153.4469  145.6140 C.ar    1  UNL11       0.1618
     23 C         124.3486  153.2845  144.2893 C.ar    1  UNL11      -0.0160
     24 C         118.0903  151.9605  145.0652 C.3     1  UNL11      -0.0431
     25 C         118.7009  149.5975  145.5630 C.3     1  UNL11      -0.0431
     26 C         121.2486  155.4463  148.0608 C.3     1  UNL11       0.0719
     27 C         120.9216  156.2152  146.7814 C.3     1  UNL11       0.0711
     28 C         126.5489  154.9281  145.0391 C.3     1  UNL11       0.0790
     29 C         119.0924  156.6478  145.3442 C.3     1  UNL11       0.0711
     30 C         117.8868  156.0181  144.6485 C.3     1  UNL11       0.0711
     31 C         115.7634  155.0419  145.0596 C.3     1  UNL11       0.0711
     32 C         114.8645  154.5405  146.1845 C.3     1  UNL11       0.0711
     33 C         112.9581  153.2480  146.6682 C.3     1  UNL11       0.0711
     34 C         111.8291  152.4302  146.0521 C.3     1  UNL11       0.0706
     35 C         109.9256  151.1499  146.5887 C.3     1  UNL11       0.0365
     36 H         118.4830  151.1599  146.8730 H       1  UNL11       0.2031
     37 H         120.8209  149.9012  147.4722 H       1  UNL11       0.0408
     38 H         123.3521  151.7557  149.4365 H       1  UNL11       0.0772
     39 H         120.2831  152.6021  146.1466 H       1  UNL11       0.0860
     40 H         120.7247  151.4694  143.9201 H       1  UNL11       0.0368
     41 H         121.3707  150.0519  144.7726 H       1  UNL11       0.0368
     42 H         122.3908  153.9668  149.6768 H       1  UNL11       0.0678
     43 H         122.9498  149.4040  148.6220 H       1  UNL11       0.0240
     44 H         124.3501  150.0039  147.7250 H       1  UNL11       0.0240
     45 H         123.0463  149.1844  146.8652 H       1  UNL11       0.0240
     46 H         119.3666  151.0551  149.0065 H       1  UNL11       0.0575
     47 H         120.1998  153.0162  150.1721 H       1  UNL11       0.0596
     48 H         122.8706  152.4563  142.9491 H       1  UNL11       0.0622
     49 H         124.8389  153.8043  143.4711 H       1  UNL11       0.0655
     50 H         118.4618  151.8928  144.0403 H       1  UNL11       0.0777
     51 H         118.1903  152.9739  145.4586 H       1  UNL11       0.0777
     52 H         117.0440  151.6470  145.1178 H       1  UNL11       0.0777
     53 H         119.0367  149.4508  144.5335 H       1  UNL11       0.0777
     54 H         117.6351  149.3691  145.6513 H       1  UNL11       0.0777
     55 H         119.2656  148.9695  146.2540 H       1  UNL11       0.0777
     56 H         122.0764  155.9430  148.5788 H       1  UNL11       0.0583
     57 H         120.3695  155.4176  148.7138 H       1  UNL11       0.0583
     58 H         120.7655  157.2697  147.0365 H       1  UNL11       0.0583
     59 H         121.7423  156.1333  146.0607 H       1  UNL11       0.0583
     60 H         127.3368  155.4979  145.5411 H       1  UNL11       0.0660
     61 H         125.9244  155.6385  144.4874 H       1  UNL11       0.0660
     62 H         127.0316  154.2167  144.3609 H       1  UNL11       0.0660
     63 H         119.7993  157.0226  144.5959 H       1  UNL11       0.0583
     64 H         118.7569  157.4740  145.9815 H       1  UNL11       0.0583
     65 H         117.4156  156.7521  143.9861 H       1  UNL11       0.0583
     66 H         118.2058  155.1477  144.0649 H       1  UNL11       0.0583
     67 H         116.0225  154.2143  144.3890 H       1  UNL11       0.0583
     68 H         115.2402  155.8026  144.4687 H       1  UNL11       0.0583
     69 H         115.4549  153.9525  146.8980 H       1  UNL11       0.0583
     70 H         114.4384  155.3938  146.7257 H       1  UNL11       0.0583
     71 H         112.5379  154.0897  147.2321 H       1  UNL11       0.0583
     72 H         113.5267  152.6269  147.3711 H       1  UNL11       0.0583
     73 H         111.2105  153.0739  145.4153 H       1  UNL11       0.0582
     74 H         112.2432  151.6332  145.4232 H       1  UNL11       0.0582
     75 H         109.3718  150.7295  147.4323 H       1  UNL11       0.0524
     76 H         110.2562  150.3305  145.9432 H       1  UNL11       0.0524
     77 H         109.2634  151.8230  146.0358 H       1  UNL11       0.0524
@<TRIPOS>UNITY_ATOM_ATTR
8 1
charge 1
@<TRIPOS>BOND
     1     1    11    1
     2     1    19    1
     3     2    15    1
     4     2    26    1
     5     3    22    1
     6     3    28    1
     7     4    27    1
     8     4    29    1
     9     5    30    1
    10     5    31    1
    11     6    32    1
    12     6    33    1
    13     7    34    1
    14     7    35    1
    15     8    12    1
    16     8    24    1
    17     8    25    1
    18     9    10    1
    19     9    11    1
    20     9    13    1
    21     9    17    1
    22    10    12    1
    23    10    18    1
    24    11    15    1
    25    12    14    1
    26    13    16   ar
    27    13    19   ar
    28    14    16    1
    29    15    20    1
    30    16    21   ar
    31    18    20    2
    32    19    22   ar
    33    21    23   ar
    34    22    23   ar
    35    26    27    1
    36    29    30    1
    37    31    32    1
    38    33    34    1
    39     8    36    1
    40    10    37    1
    41    11    38    1
    42    12    39    1
    43    14    40    1
    44    14    41    1
    45    15    42    1
    46    17    43    1
    47    17    44    1
    48    17    45    1
    49    18    46    1
    50    20    47    1
    51    21    48    1
    52    23    49    1
    53    24    50    1
    54    24    51    1
    55    24    52    1
    56    25    53    1
    57    25    54    1
    58    25    55    1
    59    26    56    1
    60    26    57    1
    61    27    58    1
    62    27    59    1
    63    28    60    1
    64    28    61    1
    65    28    62    1
    66    29    63    1
    67    29    64    1
    68    30    65    1
    69    30    66    1
    70    31    67    1
    71    31    68    1
    72    32    69    1
    73    32    70    1
    74    33    71    1
    75    33    72    1
    76    34    73    1
    77    34    74    1
    78    35    75    1
    79    35    76    1
    80    35    77    1
@<TRIPOS>MOLECULE
2519
 24 25 0 0 0
SMALL
GASTEIGER

@<TRIPOS>ATOM
      1 O         120.2829  155.6668  146.4082 O.2     1  UNL111     -0.2652
      2 O         116.7814  152.6489  146.4084 O.2     1  UNL111     -0.2462
      3 N         118.9181  151.8119  146.4083 N.am    1  UNL111     -0.2796
      4 N         122.0912  153.2508  146.4081 N.pl3   1  UNL111     -0.3277
      5 N         118.5132  154.1694  146.4083 N.am    1  UNL111     -0.2622
      6 N         121.2724  151.1810  146.4082 N.pl3   1  UNL111     -0.2177
      7 C         120.7301  153.3762  146.4081 C.3     1  UNL111      0.1512
      8 C         120.2622  152.0936  146.4082 C.3     1  UNL111      0.1678
      9 C         119.8692  154.5111  146.4082 C.2     1  UNL111      0.2822
     10 C         117.9984  152.8596  146.4083 C.2     1  UNL111      0.3331
     11 C         122.3703  151.9070  146.4081 C.3     1  UNL111      0.0986
     12 C         118.4216  150.4508  146.4085 C.3     1  UNL111      0.0181
     13 C         123.0941  154.2850  146.4082 C.3     1  UNL111      0.0135
     14 C         117.5364  155.2411  146.4085 C.3     1  UNL111      0.0196
     15 H         123.3816  151.5197  146.4082 H       1  UNL111      0.1029
     16 H         119.2328  149.7180  146.4085 H       1  UNL111      0.0458
     17 H         117.7987  150.2999  145.5209 H       1  UNL111      0.0458
     18 H         117.7988  150.3002  147.2962 H       1  UNL111      0.0458
     19 H         122.6380  155.2738  146.4070 H       1  UNL111      0.0456
     20 H         123.7092  154.1658  145.5123 H       1  UNL111      0.0456
     21 H         123.7076  154.1671  147.3055 H       1  UNL111      0.0456
     22 H         117.9964  156.2322  146.4085 H       1  UNL111      0.0458
     23 H         116.9020  155.1432  147.2956 H       1  UNL111      0.0458
     24 H         116.9017  155.1433  145.5215 H       1  UNL111      0.0458
@<TRIPOS>BOND
     1     1     9    2
     2     2    10    2
     3     3     8   ar
     4     3    10   ar
     5     3    12    1
     6     4     7   ar
     7     4    11   ar
     8     4    13    1
     9     5     9   ar
    10     5    10   ar
    11     5    14    1
    12     6     8   ar
    13     6    11   ar
    14     7     8   ar
    15     7     9   ar
    16    11    15    1
    17    12    16    1
    18    12    17    1
    19    12    18    1
    20    13    19    1
    21    13    20    1
    22    13    21    1
    23    14    22    1
    24    14    23    1
    25    14    24    1
@<TRIPOS>MOLECULE
591302
 47 50 0 0 0
SMALL
GASTEIGER

@<TRIPOS>ATOM
      1 O         121.6494  151.9983  148.1594 O.3     1  UNL11      -0.5031
      2 O         123.7684  153.1747  147.2057 O.3     1  UNL11      -0.4914
      3 N         117.0572  154.5728  147.0994 N.4     1  UNL11       0.2357
      4 C         118.9146  152.3143  147.1375 C.3     1  UNL11       0.0123
      5 C         117.7314  152.3985  146.1259 C.3     1  UNL11       0.0123
      6 C         117.4609  153.8670  145.7949 C.3     1  UNL11      -0.0134
      7 C         118.4786  153.0349  148.4406 C.3     1  UNL11      -0.0023
      8 C         119.1104  150.8006  147.4486 C.3     1  UNL11      -0.0426
      9 C         117.9546  151.5423  144.8605 C.3     1  UNL11      -0.0443
     10 C         120.1565  153.0610  146.6017 C.ar    1  UNL11       0.0079
     11 C         118.6654  154.5123  145.0962 C.3     1  UNL11       0.0162
     12 C         118.0786  154.4873  148.2116 C.3     1  UNL11      -0.0310
     13 C         119.3825  149.9611  146.2019 C.3     1  UNL11      -0.0522
     14 C         118.2376  150.0846  145.2047 C.3     1  UNL11      -0.0526
     15 C         120.0116  154.0848  145.6350 C.ar    1  UNL11      -0.0346
     16 C         121.4533  152.8486  147.1028 C.ar    1  UNL11       0.1625
     17 C         116.5640  155.9811  146.9055 C.3     1  UNL11      -0.0428
     18 C         121.1442  154.7531  145.1307 C.ar    1  UNL11      -0.0544
     19 C         122.5842  153.5222  146.6064 C.ar    1  UNL11       0.1616
     20 C         122.4240  154.4653  145.6025 C.ar    1  UNL11      -0.0160
     21 C         124.9494  153.7922  146.7027 C.3     1  UNL11       0.0790
     22 H         122.6185  151.9746  148.3011 H       1  UNL11       0.2923
     23 H         116.2367  154.0547  147.4421 H       1  UNL11       0.2033
     24 H         116.8307  151.9925  146.6124 H       1  UNL11       0.0364
     25 H         116.5786  153.9490  145.1484 H       1  UNL11       0.0857
     26 H         119.2765  153.0017  149.1930 H       1  UNL11       0.0326
     27 H         117.6234  152.5064  148.8837 H       1  UNL11       0.0326
     28 H         118.1925  150.4146  147.9158 H       1  UNL11       0.0274
     29 H         119.8884  150.6145  148.1915 H       1  UNL11       0.0274
     30 H         118.7894  151.9204  144.2610 H       1  UNL11       0.0270
     31 H         117.0649  151.5946  144.2213 H       1  UNL11       0.0270
     32 H         118.5918  155.6044  145.1245 H       1  UNL11       0.0368
     33 H         118.6377  154.2326  144.0346 H       1  UNL11       0.0368
     34 H         117.6043  154.8918  149.1128 H       1  UNL11       0.0815
     35 H         118.9233  155.1324  147.9516 H       1  UNL11       0.0815
     36 H         119.5000  148.9097  146.4885 H       1  UNL11       0.0266
     37 H         120.3238  150.2690  145.7326 H       1  UNL11       0.0266
     38 H         118.4780  149.5275  144.2922 H       1  UNL11       0.0265
     39 H         117.3338  149.6281  145.6268 H       1  UNL11       0.0265
     40 H         117.4118  156.6306  146.6771 H       1  UNL11       0.0778
     41 H         116.0827  156.2965  147.8354 H       1  UNL11       0.0778
     42 H         115.8339  155.9798  146.0925 H       1  UNL11       0.0778
     43 H         121.0357  155.5163  144.3603 H       1  UNL11       0.0622
     44 H         123.2637  155.0094  145.1823 H       1  UNL11       0.0655
     45 H         125.7996  153.3915  147.2629 H       1  UNL11       0.0660
     46 H         124.9246  154.8751  146.8627 H       1  UNL11       0.0660
     47 H         125.1016  153.5506  145.6456 H       1  UNL11       0.0660
@<TRIPOS>UNITY_ATOM_ATTR
3 1
charge 1
@<TRIPOS>BOND
     1     1    16    1
     2     2    19    1
     3     2    21    1
     4     3     6    1
     5     3    12    1
     6     3    17    1
     7     4     5    1
     8     4     7    1
     9     4     8    1
    10     4    10    1
    11     5     6    1
    12     5     9    1
    13     6    11    1
    14     7    12    1
    15     8    13    1
    16     9    14    1
    17    10    15   ar
    18    10    16   ar
    19    11    15    1
    20    13    14    1
    21    15    18   ar
    22    16    19   ar
    23    18    20   ar
    24    19    20   ar
    25     1    22    1
    26     3    23    1
    27     5    24    1
    28     6    25    1
    29     7    26    1
    30     7    27    1
    31     8    28    1
    32     8    29    1
    33     9    30    1
    34     9    31    1
    35    11    32    1
    36    11    33    1
    37    12    34    1
    38    12    35    1
    39    13    36    1
    40    13    37    1
    41    14    38    1
    42    14    39    1
    43    17    40    1
    44    17    41    1
    45    17    42    1
    46    18    43    1
    47    20    44    1
    48    21    45    1
    49    21    46    1
    50    21    47    1
@<TRIPOS>MOLECULE
5746694
 54 58 0 0 0
SMALL
GASTEIGER

@<TRIPOS>ATOM
      1 O         119.2079  153.8994  147.6484 O.2     1  UNL11      -0.4798
      2 O         121.9014  150.2869  146.6999 O.3     1  UNL11      -0.3779
      3 O         117.5033  152.4984  146.2652 O.3     1  UNL11      -0.4225
      4 O         118.7379  156.7538  146.6755 O.2     1  UNL11      -0.4914
      5 O         115.3252  152.7388  146.1638 O.3     1  UNL11      -0.4341
      6 O         116.1855  150.6533  146.5969 O.2     1  UNL11      -0.2028
      7 N         123.9428  151.9974  146.6824 N.4     1  UNL11       0.2378
      8 C         121.1233  152.5770  147.0076 C.3     1  UNL11       0.0825
      9 C         121.6077  151.5170  146.0007 C.3     1  UNL11       0.1400
     10 C         122.9888  152.0340  145.4586 C.3     1  UNL11       0.0170
     11 C         119.6486  152.5120  147.4622 C.3     1  UNL11       0.1537
     12 C         122.0912  152.6841  148.2127 C.3     1  UNL11       0.0040
     13 C         121.0604  153.9061  146.3269 C.3     1  UNL11       0.0146
     14 C         122.9475  153.4249  144.7720 C.3     1  UNL11       0.0190
     15 C         123.5468  152.9218  147.8054 C.3     1  UNL11      -0.0307
     16 C         121.9303  154.3654  145.3533 C.3     1  UNL11      -0.0343
     17 C         118.6847  151.7248  146.5173 C.3     1  UNL11       0.1623
     18 C         120.5883  151.1986  144.9486 C.2     1  UNL11      -0.0469
     19 C         119.9677  154.6292  146.7703 C.3     1  UNL11       0.1667
     20 C         119.2724  151.3099  145.1880 C.2     1  UNL11      -0.0413
     21 C         125.3973  152.0788  146.3380 C.3     1  UNL11      -0.0427
     22 C         121.7389  155.6685  144.8987 C.3     1  UNL11      -0.0544
     23 C         119.7517  155.9161  146.3193 C.3     1  UNL11       0.1618
     24 C         120.6740  156.4422  145.4014 C.3     1  UNL11      -0.0160
     25 C         116.3216  151.8447  146.3680 C.2     1  UNL11       0.5108
     26 C         117.4986  156.1183  146.9765 C.3     1  UNL11       0.0790
     27 C         114.0102  152.1752  146.2199 C.3     1  UNL11       0.0931
     28 C         113.0039  153.3034  146.1046 C.3     1  UNL11      -0.0305
     29 H         121.1474  149.6733  146.5850 H       1  UNL11       0.2109
     30 H         123.7844  151.0397  147.0492 H       1  UNL11       0.2035
     31 H         123.4136  151.2943  144.7679 H       1  UNL11       0.0886
     32 H         119.5819  152.0435  148.4530 H       1  UNL11       0.0784
     33 H         122.0368  151.7583  148.8006 H       1  UNL11       0.0328
     34 H         121.7891  153.4885  148.8963 H       1  UNL11       0.0328
     35 H         122.6692  153.2651  143.7220 H       1  UNL11       0.0369
     36 H         123.9339  153.8989  144.7727 H       1  UNL11       0.0369
     37 H         123.7271  153.9494  147.4748 H       1  UNL11       0.0815
     38 H         124.2120  152.7103  148.6499 H       1  UNL11       0.0815
     39 H         118.4382  150.7915  147.0415 H       1  UNL11       0.0819
     40 H         120.9207  150.8341  143.9783 H       1  UNL11       0.0601
     41 H         118.5636  151.0330  144.4081 H       1  UNL11       0.0607
     42 H         125.6305  153.0947  146.0119 H       1  UNL11       0.0778
     43 H         125.6046  151.3539  145.5469 H       1  UNL11       0.0778
     44 H         125.9696  151.8226  147.2334 H       1  UNL11       0.0778
     45 H         122.3861  156.0995  144.1371 H       1  UNL11       0.0622
     46 H         120.5327  157.4583  145.0349 H       1  UNL11       0.0655
     47 H         116.7173  156.8838  146.9384 H       1  UNL11       0.0660
     48 H         117.5070  155.7064  147.9895 H       1  UNL11       0.0660
     49 H         117.2445  155.3529  146.2351 H       1  UNL11       0.0660
     50 H         113.8650  151.6485  147.1700 H       1  UNL11       0.0696
     51 H         113.8799  151.4752  145.3871 H       1  UNL11       0.0696
     52 H         113.1266  154.0134  146.9292 H       1  UNL11       0.0262
     53 H         111.9811  152.9167  146.1217 H       1  UNL11       0.0262
     54 H         113.1556  153.8638  145.1763 H       1  UNL11       0.0262
@<TRIPOS>UNITY_ATOM_ATTR
7 1
charge 1
@<TRIPOS>BOND
     1     1    11    1
     2     1    19    1
     3     2     9    1
     4     3    17    1
     5     3    25    1
     6     4    23    1
     7     4    26    1
     8     5    25    1
     9     5    27    1
    10     6    25    2
    11     7    10    1
    12     7    15    1
    13     7    21    1
    14     8     9    1
    15     8    11    1
    16     8    12    1
    17     8    13    1
    18     9    10    1
    19     9    18    1
    20    10    14    1
    21    11    17    1
    22    12    15    1
    23    13    16   ar
    24    13    19   ar
    25    14    16    1
    26    16    22   ar
    27    17    20    1
    28    18    20    2
    29    19    23   ar
    30    22    24   ar
    31    23    24   ar
    32    27    28    1
    33     2    29    1
    34     7    30    1
    35    10    31    1
    36    11    32    1
    37    12    33    1
    38    12    34    1
    39    14    35    1
    40    14    36    1
    41    15    37    1
    42    15    38    1
    43    17    39    1
    44    18    40    1
    45    20    41    1
    46    21    42    1
    47    21    43    1
    48    21    44    1
    49    22    45    1
    50    24    46    1
    51    26    47    1
    52    26    48    1
    53    26    49    1
    54    27    50    1
    55    27    51    1
    56    28    52    1
    57    28    53    1
    58    28    54    1
@<TRIPOS>MOLECULE
15942733
 45 50 0 0 0
SMALL
GASTEIGER

@<TRIPOS>ATOM
      1 O         118.5846  155.8134  144.6039 O.3     1  UNL11      -0.3649
      2 O         121.5968  153.8481  147.3249 O.3     1  UNL11      -0.4813
      3 O         121.4112  156.5071  146.5379 O.3     1  UNL11      -0.3854
      4 O         123.8089  151.9441  146.3986 O.3     1  UNL11      -0.4914
      5 N         116.7031  151.9199  146.8459 N.4     1  UNL11       0.2358
      6 C         119.2275  153.3980  146.9879 C.3     1  UNL11       0.0541
      7 C         118.1689  153.7532  145.9310 C.3     1  UNL11       0.0444
      8 C         118.8142  154.4108  144.7312 C.3     1  UNL11       0.0967
      9 C         119.9023  155.4177  145.0192 C.3     1  UNL11       0.1150
     10 C         120.2806  154.4804  147.3406 C.3     1  UNL11       0.1389
     11 C         117.4133  152.4447  145.5771 C.3     1  UNL11      -0.0107
     12 C         120.2158  155.7441  146.4480 C.3     1  UNL11       0.1212
     13 C         118.5577  152.8459  148.2626 C.3     1  UNL11       0.0013
     14 C         120.1337  152.3810  146.3767 C.ar    1  UNL11       0.0118
     15 C         118.3305  151.3135  145.0086 C.3     1  UNL11       0.0163
     16 C         117.6332  151.6609  148.0101 C.3     1  UNL11      -0.0309
     17 C         119.7465  151.3594  145.5201 C.ar    1  UNL11      -0.0345
     18 C         121.4583  152.6645  146.6540 C.ar    1  UNL11       0.1665
     19 C         115.4831  152.7201  147.2323 C.3     1  UNL11      -0.0428
     20 C         120.7430  150.5012  145.0615 C.ar    1  UNL11      -0.0544
     21 C         122.4649  151.8293  146.2048 C.ar    1  UNL11       0.1618
     22 C         122.0841  150.7252  145.4245 C.ar    1  UNL11      -0.0160
     23 C         124.2732  153.0868  147.1075 C.3     1  UNL11       0.0790
     24 H         121.2906  157.3164  146.0101 H       1  UNL11       0.2101
     25 H         116.3224  150.9964  146.5937 H       1  UNL11       0.2033
     26 H         117.4626  154.4755  146.3594 H       1  UNL11       0.0392
     27 H         118.8915  153.8206  143.8286 H       1  UNL11       0.0628
     28 H         120.7313  155.5032  144.3301 H       1  UNL11       0.0649
     29 H         120.1536  154.8234  148.3760 H       1  UNL11       0.0769
     30 H         116.6129  152.6354  144.8522 H       1  UNL11       0.0858
     31 H         119.4097  156.3768  146.8426 H       1  UNL11       0.0657
     32 H         117.9817  153.6516  148.7365 H       1  UNL11       0.0327
     33 H         119.3136  152.5395  148.9978 H       1  UNL11       0.0327
     34 H         118.3763  151.4421  143.9193 H       1  UNL11       0.0368
     35 H         117.8974  150.3240  145.1958 H       1  UNL11       0.0368
     36 H         118.1943  150.7512  147.7736 H       1  UNL11       0.0815
     37 H         117.0169  151.4408  148.8887 H       1  UNL11       0.0815
     38 H         115.7944  153.6957  147.6099 H       1  UNL11       0.0778
     39 H         114.9490  152.1612  148.0055 H       1  UNL11       0.0778
     40 H         114.8500  152.8228  146.3476 H       1  UNL11       0.0778
     41 H         120.5126  149.6770  144.3890 H       1  UNL11       0.0622
     42 H         122.8564  150.0540  145.0494 H       1  UNL11       0.0655
     43 H         125.3646  153.0223  147.1597 H       1  UNL11       0.0660
     44 H         123.8961  153.0957  148.1351 H       1  UNL11       0.0660
     45 H         124.0251  154.0108  146.5754 H       1  UNL11       0.0660
@<TRIPOS>UNITY_ATOM_ATTR
5 1
charge 1
@<TRIPOS>BOND
     1     1     8    1
     2     1     9    1
     3     2    10    1
     4     2    18    1
     5     3    12    1
     6     4    21    1
     7     4    23    1
     8     5    11    1
     9     5    16    1
    10     5    19    1
    11     6     7    1
    12     6    10    1
    13     6    13    1
    14     6    14    1
    15     7     8    1
    16     7    11    1
    17     8     9    1
    18     9    12    1
    19    10    12    1
    20    11    15    1
    21    13    16    1
    22    14    17   ar
    23    14    18   ar
    24    15    17    1
    25    17    20   ar
    26    18    21   ar
    27    20    22   ar
    28    21    22   ar
    29     3    24    1
    30     5    25    1
    31     7    26    1
    32     8    27    1
    33     9    28    1
    34    10    29    1
    35    11    30    1
    36    12    31    1
    37    13    32    1
    38    13    33    1
    39    15    34    1
    40    15    35    1
    41    16    36    1
    42    16    37    1
    43    19    38    1
    44    19    39    1
    45    19    40    1
    46    20    41    1
    47    22    42    1
    48    23    43    1
    49    23    44    1
    50    23    45    1
@<TRIPOS>MOLECULE
2244
 20 20 0 0 0
SMALL
GASTEIGER

@<TRIPOS>ATOM
      1 O         121.0919  153.7584  147.2117 O.3     1  UNL111     -0.4254
      2 O         119.0309  150.1833  146.5213 O.co2   1  UNL111     -0.5445
      3 O         121.0592  151.1744  146.5032 O.2     1  UNL111     -0.5445
      4 O         121.7506  154.4961  145.0894 O.2     1  UNL111     -0.2507
      5 C         119.7597  153.7636  146.7938 C.3     1  UNL111      0.1404
      6 C         119.1029  152.5604  146.4925 C.3     1  UNL111      0.0397
      7 C         119.0869  154.9922  146.7940 C.3     1  UNL111     -0.0186
      8 C         117.7363  152.6420  146.1613 C.3     1  UNL111     -0.0494
      9 C         117.7368  155.0424  146.4555 C.3     1  UNL111     -0.0582
     10 C         117.0609  153.8667  146.1385 C.3     1  UNL111     -0.0609
     11 C         119.7871  151.2076  146.5111 C.3     1  UNL111      0.0752
     12 C         121.9753  153.9299  146.1559 C.2     1  UNL111      0.3092
     13 C         123.3437  153.4832  146.5814 C.3     1  UNL111      0.0336
     14 H         119.6218  155.9009  147.0491 H       1  UNL111      0.0654
     15 H         117.1981  151.7257  145.9197 H       1  UNL111      0.0625
     16 H         117.2141  155.9932  146.4412 H       1  UNL111      0.0619
     17 H         116.0079  153.8922  145.8752 H       1  UNL111      0.0618
     18 H         123.2772  152.6794  147.3198 H       1  UNL111      0.0342
     19 H         123.8861  154.3294  147.0093 H       1  UNL111      0.0342
     20 H         123.8797  153.0928  145.7120 H       1  UNL111      0.0342
@<TRIPOS>UNITY_ATOM_ATTR
2 1
charge -1
@<TRIPOS>BOND
     1     1     5    1
     2     1    12    1
     3     2    11    1
     4     3    11    2
     5     4    12    2
     6     5     6   ar
     7     5     7   ar
     8     6     8   ar
     9     6    11    1
    10     7     9   ar
    11     8    10   ar
    12     9    10   ar
    13    12    13    1
    14     7    14    1
    15     8    15    1
    16     9    16    1
    17    10    17    1
    18    13    18    1
    19    13    19    1
    20    13    20    1
@<TRIPOS>MOLECULE
61063
 44 48 0 0 0
SMALL
GASTEIGER

@<TRIPOS>ATOM
      1 O         121.9211  153.9126  147.6745 O.3     1  UNL11      -0.4811
      2 O         122.4754  155.8816  145.9633 O.3     1  UNL11      -0.3841
      3 O         123.9188  151.8589  147.2001 O.3     1  UNL11      -0.5033
      4 N         116.6013  152.7957  146.6107 N.4     1  UNL11       0.2418
      5 C         119.5649  153.7877  147.0629 C.3     1  UNL11       0.0553
      6 C         118.6658  154.0351  145.8655 C.3     1  UNL11       0.0340
      7 C         117.9031  152.6600  145.8878 C.3     1  UNL11      -0.0082
      8 C         118.5824  153.5850  148.3018 C.3     1  UNL11       0.0015
      9 C         120.7527  154.7384  147.3154 C.3     1  UNL11       0.1402
     10 C         120.3948  152.5586  146.6424 C.ar    1  UNL11       0.0120
     11 C         117.0005  153.5885  147.9689 C.3     1  UNL11      -0.0294
     12 C         118.5931  151.5372  145.1126 C.3     1  UNL11       0.0166
     13 C         120.0172  151.5179  145.7401 C.ar    1  UNL11      -0.0345
     14 C         119.4189  154.4762  144.6395 C.2     1  UNL11      -0.0761
     15 C         121.0794  155.6615  146.0995 C.3     1  UNL11       0.1110
     16 C         121.6889  152.7060  147.0730 C.ar    1  UNL11       0.1663
     17 C         115.9902  151.4371  146.9816 C.3     1  UNL11      -0.0412
     18 C         115.5714  153.5586  145.7936 C.3     1  UNL11      -0.0412
     19 C         120.5334  155.2173  144.7664 C.2     1  UNL11      -0.0558
     20 C         120.9754  150.5557  145.4265 C.ar    1  UNL11      -0.0544
     21 C         122.6327  151.7492  146.7728 C.ar    1  UNL11       0.1588
     22 C         122.2742  150.6644  145.9650 C.ar    1  UNL11      -0.0162
     23 H         122.9230  155.0493  146.2033 H       1  UNL11       0.2104
     24 H         123.9714  152.6521  147.7645 H       1  UNL11       0.2923
     25 H         117.9925  154.8756  146.0695 H       1  UNL11       0.0408
     26 H         118.2229  152.1108  146.7753 H       1  UNL11       0.0861
     27 H         118.7391  154.3885  149.0314 H       1  UNL11       0.0327
     28 H         118.8244  152.6482  148.8210 H       1  UNL11       0.0327
     29 H         120.5720  155.3834  148.1834 H       1  UNL11       0.0772
     30 H         116.4279  153.1395  148.7866 H       1  UNL11       0.0815
     31 H         116.6601  154.6203  147.8278 H       1  UNL11       0.0815
     32 H         118.6531  151.7568  144.0429 H       1  UNL11       0.0368
     33 H         118.1100  150.5650  145.2572 H       1  UNL11       0.0368
     34 H         119.0379  154.2430  143.6481 H       1  UNL11       0.0575
     35 H         120.6294  156.6434  146.2935 H       1  UNL11       0.0675
     36 H         116.6931  150.8919  147.6184 H       1  UNL11       0.0778
     37 H         115.7947  150.8878  146.0565 H       1  UNL11       0.0778
     38 H         115.0580  151.6204  147.5240 H       1  UNL11       0.0778
     39 H         115.9557  154.5504  145.5478 H       1  UNL11       0.0778
     40 H         114.6615  153.6526  146.3933 H       1  UNL11       0.0778
     41 H         115.3760  152.9919  144.8786 H       1  UNL11       0.0778
     42 H         121.0511  155.5769  143.8784 H       1  UNL11       0.0596
     43 H         120.7480  149.7310  144.7548 H       1  UNL11       0.0622
     44 H         123.0261  149.9182  145.7141 H       1  UNL11       0.0655
@<TRIPOS>UNITY_ATOM_ATTR
4 1
charge 1
@<TRIPOS>BOND
     1     1     9    1
     2     1    16    1
     3     2    15    1
     4     3    21    1
     5     4     7    1
     6     4    11    1
     7     4    17    1
     8     4    18    1
     9     5     6    1
    10     5     8    1
    11     5     9    1
    12     5    10    1
    13     6     7    1
    14     6    14    1
    15     7    12    1
    16     8    11    1
    17     9    15    1
    18    10    13   ar
    19    10    16   ar
    20    12    13    1
    21    13    20   ar
    22    14    19    2
    23    15    19    1
    24    16    21   ar
    25    20    22   ar
    26    21    22   ar
    27     2    23    1
    28     3    24    1
    29     6    25    1
    30     7    26    1
    31     8    27    1
    32     8    28    1
    33     9    29    1
    34    11    30    1
    35    11    31    1
    36    12    32    1
    37    12    33    1
    38    14    34    1
    39    15    35    1
    40    17    36    1
    41    17    37    1
    42    17    38    1
    43    18    39    1
    44    18    40    1
    45    18    41    1
    46    19    42    1
    47    20    43    1
    48    22    44    1
@<TRIPOS>MOLECULE
18611399
 57 61 0 0 0
SMALL
GASTEIGER

@<TRIPOS>ATOM
      1 O         121.4375  152.6298  145.6908 O.3     1  UNL11      -0.4521
      2 O         122.4824  150.8617  147.6123 O.3     1  UNL11      -0.4914
      3 N         116.8460  154.9246  147.4541 N.4     1  UNL11       0.2357
      4 C         118.5724  153.3712  145.6359 C.3     1  UNL11       0.0123
      5 C         117.0263  153.1749  145.6618 C.3     1  UNL11       0.0123
      6 C         116.5061  153.4754  147.0661 C.3     1  UNL11      -0.0134
      7 C         118.8535  154.8627  145.9569 C.3     1  UNL11      -0.0023
      8 C         119.0125  153.0887  144.1682 C.3     1  UNL11      -0.0426
      9 C         116.5855  151.7822  145.1588 C.3     1  UNL11      -0.0443
     10 C         119.2570  152.5049  146.7245 C.ar    1  UNL11       0.0087
     11 C         117.0735  152.4920  148.0971 C.3     1  UNL11       0.0162
     12 C         118.3063  155.2956  147.3098 C.3     1  UNL11      -0.0310
     13 C         118.6252  151.6932  143.6825 C.3     1  UNL11      -0.0522
     14 C         117.1173  151.4907  143.7599 C.3     1  UNL11      -0.0526
     15 C         118.5145  152.0947  147.8654 C.ar    1  UNL11      -0.0346
     16 C         120.6261  152.1442  146.6867 C.ar    1  UNL11       0.1738
     17 C         115.9288  155.9378  146.8137 C.3     1  UNL11      -0.0428
     18 C         119.1008  151.2693  148.8440 C.ar    1  UNL11      -0.0544
     19 C         121.1730  151.2643  147.6379 C.ar    1  UNL11       0.1624
     20 C         120.4184  150.8476  148.7247 C.ar    1  UNL11      -0.0160
     21 C         122.3493  153.6225  145.9929 C.ar    1  UNL11       0.1286
     22 C         122.7133  149.9236  146.5603 C.3     1  UNL11       0.0790
     23 C         122.5150  154.2344  147.2389 C.ar    1  UNL11      -0.0193
     24 C         123.1359  154.0383  144.9139 C.ar    1  UNL11      -0.0193
     25 C         123.4633  155.2482  147.4004 C.ar    1  UNL11      -0.0583
     26 C         124.0803  155.0528  145.0758 C.ar    1  UNL11      -0.0583
     27 C         124.2433  155.6578  146.3200 C.ar    1  UNL11      -0.0615
     28 H         116.6473  155.0040  148.4605 H       1  UNL11       0.2033
     29 H         116.5735  153.8964  144.9666 H       1  UNL11       0.0364
     30 H         115.4116  153.4165  147.1022 H       1  UNL11       0.0857
     31 H         118.4098  155.4974  145.1782 H       1  UNL11       0.0326
     32 H         119.9267  155.0753  145.9289 H       1  UNL11       0.0326
     33 H         120.0787  153.2511  144.0034 H       1  UNL11       0.0274
     34 H         118.5242  153.8187  143.5058 H       1  UNL11       0.0274
     35 H         115.4901  151.7280  145.1450 H       1  UNL11       0.0270
     36 H         116.9259  150.9850  145.8281 H       1  UNL11       0.0270
     37 H         116.4717  151.5740  148.0680 H       1  UNL11       0.0368
     38 H         116.9665  152.9054  149.1080 H       1  UNL11       0.0368
     39 H         118.8397  154.8301  148.1445 H       1  UNL11       0.0815
     40 H         118.3896  156.3799  147.4427 H       1  UNL11       0.0815
     41 H         119.1375  150.9264  144.2745 H       1  UNL11       0.0266
     42 H         118.9540  151.5640  142.6449 H       1  UNL11       0.0266
     43 H         116.6225  152.1522  143.0381 H       1  UNL11       0.0265
     44 H         116.8651  150.4635  143.4733 H       1  UNL11       0.0265
     45 H         116.1132  155.9652  145.7382 H       1  UNL11       0.0778
     46 H         116.1350  156.9113  147.2667 H       1  UNL11       0.0778
     47 H         114.8975  155.6457  147.0281 H       1  UNL11       0.0778
     48 H         118.5266  150.9373  149.7085 H       1  UNL11       0.0622
     49 H         120.8617  150.2030  149.4798 H       1  UNL11       0.0655
     50 H         123.6915  149.4647  146.7329 H       1  UNL11       0.0660
     51 H         122.7435  150.4188  145.5854 H       1  UNL11       0.0660
     52 H         121.9616  149.1261  146.5597 H       1  UNL11       0.0660
     53 H         121.9384  153.9295  148.1056 H       1  UNL11       0.0654
     54 H         123.0191  153.5656  143.9418 H       1  UNL11       0.0654
     55 H         123.6070  155.7090  148.3748 H       1  UNL11       0.0619
     56 H         124.6954  155.3633  144.2347 H       1  UNL11       0.0619
     57 H         124.9886  156.4391  146.4506 H       1  UNL11       0.0618
@<TRIPOS>UNITY_ATOM_ATTR
3 1
charge 1
@<TRIPOS>BOND
     1     1    16    1
     2     1    21    1
     3     2    19    1
     4     2    22    1
     5     3     6    1
     6     3    12    1
     7     3    17    1
     8     4     5    1
     9     4     7    1
    10     4     8    1
    11     4    10    1
    12     5     6    1
    13     5     9    1
    14     6    11    1
    15     7    12    1
    16     8    13    1
    17     9    14    1
    18    10    15   ar
    19    10    16   ar
    20    11    15    1
    21    13    14    1
    22    15    18   ar
    23    16    19   ar
    24    18    20   ar
    25    19    20   ar
    26    21    23   ar
    27    21    24   ar
    28    23    25   ar
    29    24    26   ar
    30    25    27   ar
    31    26    27   ar
    32     3    28    1
    33     5    29    1
    34     6    30    1
    35     7    31    1
    36     7    32    1
    37     8    33    1
    38     8    34    1
    39     9    35    1
    40     9    36    1
    41    11    37    1
    42    11    38    1
    43    12    39    1
    44    12    40    1
    45    13    41    1
    46    13    42    1
    47    14    43    1
    48    14    44    1
    49    17    45    1
    50    17    46    1
    51    17    47    1
    52    18    48    1
    53    20    49    1
    54    22    50    1
    55    22    51    1
    56    22    52    1
    57    23    53    1
    58    24    54    1
    59    25    55    1
    60    26    56    1
    61    27    57    1
