@<TRIPOS>MOLECULE
66553195
 57 60 0 0 0
SMALL
GASTEIGER

@<TRIPOS>ATOM
      1 S         118.5656  153.0233  150.3296 S.2     1  UNL11111   -0.1269
      2 O         124.1925  154.9569  145.8625 O.3     1  UNL11111   -0.4593
      3 O         116.2778  152.8425  147.2253 O.3     1  UNL11111   -0.5783
      4 N         121.9096  151.3354  146.8280 N.ar    1  UNL11111   -0.3349
      5 N         118.1730  155.3585  147.2931 N.3     1  UNL11111   -0.3404
      6 C         123.9904  154.1145  147.0071 C.3     1  UNL11111    0.0110
      7 C         121.5570  153.6924  146.1825 C.3     1  UNL11111    0.0128
      8 C         122.4956  154.0452  147.3741 C.3     1  UNL11111   -0.0152
      9 C         124.7954  154.7419  148.1591 C.3     1  UNL11111   -0.0341
     10 C         124.7189  152.7738  146.8524 C.3     1  UNL11111   -0.0341
     11 C         121.9385  154.6549  145.0295 C.3     1  UNL11111   -0.0192
     12 C         126.2496  154.3720  147.8715 C.3     1  UNL11111   -0.0539
     13 C         126.1989  153.1269  146.9904 C.3     1  UNL11111   -0.0539
     14 C         120.0508  153.8671  146.5719 C.3     1  UNL11111   -0.0315
     15 C         123.4279  154.5980  144.7176 C.3     1  UNL11111    0.0064
     16 C         121.6811  152.1997  145.8053 C.ar    1  UNL11111   -0.0010
     17 C         119.6243  155.2337  147.1305 C.3     1  UNL11111   -0.0284
     18 C         121.4746  151.7289  144.5069 C.ar    1  UNL11111   -0.0514
     19 C         121.5498  150.3599  144.2511 C.ar    1  UNL11111   -0.0708
     20 C         121.9765  150.0139  146.5556 C.ar    1  UNL11111   -0.0127
     21 C         117.6876  155.0578  148.6444 C.3     1  UNL11111    0.0161
     22 C         121.8097  149.4824  145.2927 C.ar    1  UNL11111   -0.0571
     23 C         117.6829  153.5934  148.9726 C.ar    1  UNL11111    0.0248
     24 C         117.0271  152.5625  148.3240 C.ar    1  UNL11111    0.0564
     25 C         117.2692  151.2991  148.9415 C.ar    1  UNL11111   -0.0135
     26 C         118.0934  151.4087  150.0396 C.ar    1  UNL11111   -0.0275
     27 C         115.7179  151.7076  146.5794 C.3     1  UNL11111    0.0304
     28 H         117.6795  154.7508  146.6380 H       1  UNL11111    0.1338
     29 H         122.2255  155.0483  147.7282 H       1  UNL11111    0.0529
     30 H         122.3361  153.3755  148.2284 H       1  UNL11111    0.0529
     31 H         124.4963  154.3128  149.1235 H       1  UNL11111    0.0462
     32 H         124.6774  155.8295  148.2144 H       1  UNL11111    0.0462
     33 H         124.5457  152.2724  145.8975 H       1  UNL11111    0.0462
     34 H         124.4396  152.0867  147.6602 H       1  UNL11111    0.0462
     35 H         121.7191  155.6856  145.3331 H       1  UNL11111    0.0502
     36 H         121.3510  154.4754  144.1238 H       1  UNL11111    0.0502
     37 H         126.8013  154.1914  148.7997 H       1  UNL11111    0.0342
     38 H         126.7579  155.1853  147.3411 H       1  UNL11111    0.0342
     39 H         126.6308  153.3495  146.0076 H       1  UNL11111    0.0342
     40 H         126.7699  152.2977  147.4198 H       1  UNL11111    0.0342
     41 H         119.7971  153.0982  147.3106 H       1  UNL11111    0.0446
     42 H         119.4362  153.6463  145.6869 H       1  UNL11111    0.0446
     43 H         123.7417  153.6215  144.3378 H       1  UNL11111    0.0891
     44 H         123.6599  155.3276  143.9345 H       1  UNL11111    0.0891
     45 H         120.1383  155.4603  148.0700 H       1  UNL11111    0.0605
     46 H         119.9133  156.0166  146.4238 H       1  UNL11111    0.0605
     47 H         121.2427  152.3952  143.6847 H       1  UNL11111    0.1002
     48 H         121.3973  149.9835  143.2434 H       1  UNL11111    0.0906
     49 H         122.1736  149.3760  147.4121 H       1  UNL11111    0.1371
     50 H         116.6523  155.4159  148.7093 H       1  UNL11111    0.0805
     51 H         118.2453  155.6452  149.3841 H       1  UNL11111    0.0805
     52 H         121.8728  148.4135  145.1266 H       1  UNL11111    0.0980
     53 H         116.8731  150.3481  148.6122 H       1  UNL11111    0.1153
     54 H         118.4416  150.6166  150.6878 H       1  UNL11111    0.1125
     55 H         115.1636  152.0601  145.7042 H       1  UNL11111    0.1070
     56 H         115.0108  151.1882  147.2348 H       1  UNL11111    0.1070
     57 H         116.5000  151.0267  146.2262 H       1  UNL11111    0.1070
@<TRIPOS>BOND
     1     1    23   ar
     2     1    26   ar
     3     2     6    1
     4     2    15    1
     5     3    24    1
     6     3    27    1
     7     4    16   ar
     8     4    20   ar
     9     5    17    1
    10     5    21    1
    11     6     8    1
    12     6     9    1
    13     6    10    1
    14     7     8    1
    15     7    11    1
    16     7    14    1
    17     7    16    1
    18     9    12    1
    19    10    13    1
    20    11    15    1
    21    12    13    1
    22    14    17    1
    23    16    18   ar
    24    18    19   ar
    25    19    22   ar
    26    20    22   ar
    27    21    23    1
    28    23    24   ar
    29    24    25   ar
    30    25    26   ar
    31     5    28    1
    32     8    29    1
    33     8    30    1
    34     9    31    1
    35     9    32    1
    36    10    33    1
    37    10    34    1
    38    11    35    1
    39    11    36    1
    40    12    37    1
    41    12    38    1
    42    13    39    1
    43    13    40    1
    44    14    41    1
    45    14    42    1
    46    15    43    1
    47    15    44    1
    48    17    45    1
    49    17    46    1
    50    18    47    1
    51    19    48    1
    52    20    49    1
    53    21    50    1
    54    21    51    1
    55    22    52    1
    56    25    53    1
    57    26    54    1
    58    27    55    1
    59    27    56    1
    60    27    57    1
@<TRIPOS>MOLECULE
66553195
 57 60 0 0 0
SMALL
GASTEIGER

@<TRIPOS>ATOM
      1 S         116.3389  152.5566  148.0443 S.2     1  UNL11111   -0.1269
      2 O         124.0952  154.9515  145.8670 O.3     1  UNL11111   -0.4593
      3 O         119.1522  153.1317  150.6252 O.3     1  UNL11111   -0.5783
      4 N         121.9249  151.3149  146.9942 N.ar    1  UNL11111   -0.3349
      5 N         118.1253  155.3116  147.4693 N.3     1  UNL11111   -0.3404
      6 C         123.9472  154.1348  147.0380 C.3     1  UNL11111    0.0110
      7 C         121.4954  153.6492  146.3074 C.3     1  UNL11111    0.0128
      8 C         122.4668  154.0479  147.4576 C.3     1  UNL11111   -0.0152
      9 C         124.7791  154.8051  148.1459 C.3     1  UNL11111   -0.0341
     10 C         124.6960  152.8042  146.8910 C.3     1  UNL11111   -0.0341
     11 C         121.8216  154.5882  145.1178 C.3     1  UNL11111   -0.0192
     12 C         126.2296  154.4548  147.8172 C.3     1  UNL11111   -0.0539
     13 C         126.1726  153.1888  146.9670 C.3     1  UNL11111   -0.0539
     14 C         119.9988  153.8099  146.7389 C.3     1  UNL11111   -0.0315
     15 C         123.3004  154.5494  144.7577 C.3     1  UNL11111    0.0064
     16 C         121.6335  152.1497  145.9625 C.ar    1  UNL11111   -0.0010
     17 C         119.5756  155.1739  147.3052 C.3     1  UNL11111   -0.0284
     18 C         121.3790  151.6444  144.6855 C.ar    1  UNL11111   -0.0514
     19 C         121.4707  150.2717  144.4575 C.ar    1  UNL11111   -0.0708
     20 C         122.0069  149.9888  146.7477 C.ar    1  UNL11111   -0.0127
     21 C         117.6262  154.9147  148.7905 C.3     1  UNL11111    0.0161
     22 C         121.7951  149.4245  145.5058 C.ar    1  UNL11111   -0.0571
     23 C         117.4976  153.4302  148.9642 C.ar    1  UNL11111    0.0248
     24 C         118.2023  152.5988  149.8140 C.ar    1  UNL11111    0.0564
     25 C         117.7979  151.2357  149.6892 C.ar    1  UNL11111   -0.0135
     26 C         116.7962  151.0748  148.7575 C.ar    1  UNL11111   -0.0275
     27 C         119.9311  152.1800  151.3368 C.3     1  UNL11111    0.0304
     28 H         117.6275  154.7811  146.7562 H       1  UNL11111    0.1338
     29 H         122.1899  155.0548  147.7959 H       1  UNL11111    0.0529
     30 H         122.3483  153.3970  148.3328 H       1  UNL11111    0.0529
     31 H         124.5214  154.3946  149.1302 H       1  UNL11111    0.0462
     32 H         124.6424  155.8914  148.1789 H       1  UNL11111    0.0462
     33 H         124.4994  152.2753  145.9556 H       1  UNL11111    0.0462
     34 H         124.4590  152.1330  147.7252 H       1  UNL11111    0.0462
     35 H         121.5929  155.6224  145.4017 H       1  UNL11111    0.0502
     36 H         121.2085  154.3751  144.2367 H       1  UNL11111    0.0502
     37 H         126.8155  154.3058  148.7299 H       1  UNL11111    0.0342
     38 H         126.7045  155.2645  147.2514 H       1  UNL11111    0.0342
     39 H         126.5643  153.3967  145.9643 H       1  UNL11111    0.0342
     40 H         126.7754  152.3810  147.3938 H       1  UNL11111    0.0342
     41 H         119.7749  153.0430  147.4886 H       1  UNL11111    0.0446
     42 H         119.3623  153.5779  145.8726 H       1  UNL11111    0.0446
     43 H         123.6193  153.5691  144.3924 H       1  UNL11111    0.0891
     44 H         123.4929  155.2625  143.9490 H       1  UNL11111    0.0891
     45 H         120.0903  155.3901  148.2473 H       1  UNL11111    0.0605
     46 H         119.8710  155.9615  146.6066 H       1  UNL11111    0.0605
     47 H         121.0954  152.2861  143.8600 H       1  UNL11111    0.1002
     48 H         121.2796  149.8688  143.4667 H       1  UNL11111    0.0906
     49 H         122.2551  149.3740  147.6076 H       1  UNL11111    0.1371
     50 H         116.6321  155.3627  148.9165 H       1  UNL11111    0.0805
     51 H         118.2410  155.3577  149.5829 H       1  UNL11111    0.0805
     52 H         121.8717  148.3534  145.3610 H       1  UNL11111    0.0980
     53 H         118.2082  150.4025  150.2436 H       1  UNL11111    0.1153
     54 H         116.3075  150.1563  148.4636 H       1  UNL11111    0.1125
     55 H         120.6837  152.7266  151.9131 H       1  UNL11111    0.1070
     56 H         120.4581  151.5061  150.6527 H       1  UNL11111    0.1070
     57 H         119.3143  151.6170  152.0456 H       1  UNL11111    0.1070
@<TRIPOS>BOND
     1     1    23   ar
     2     1    26   ar
     3     2     6    1
     4     2    15    1
     5     3    24    1
     6     3    27    1
     7     4    16   ar
     8     4    20   ar
     9     5    17    1
    10     5    21    1
    11     6     8    1
    12     6     9    1
    13     6    10    1
    14     7     8    1
    15     7    11    1
    16     7    14    1
    17     7    16    1
    18     9    12    1
    19    10    13    1
    20    11    15    1
    21    12    13    1
    22    14    17    1
    23    16    18   ar
    24    18    19   ar
    25    19    22   ar
    26    20    22   ar
    27    21    23    1
    28    23    24   ar
    29    24    25   ar
    30    25    26   ar
    31     5    28    1
    32     8    29    1
    33     8    30    1
    34     9    31    1
    35     9    32    1
    36    10    33    1
    37    10    34    1
    38    11    35    1
    39    11    36    1
    40    12    37    1
    41    12    38    1
    42    13    39    1
    43    13    40    1
    44    14    41    1
    45    14    42    1
    46    15    43    1
    47    15    44    1
    48    17    45    1
    49    17    46    1
    50    18    47    1
    51    19    48    1
    52    20    49    1
    53    21    50    1
    54    21    51    1
    55    22    52    1
    56    25    53    1
    57    26    54    1
    58    27    55    1
    59    27    56    1
    60    27    57    1
@<TRIPOS>MOLECULE
66553195
 57 60 0 0 0
SMALL
GASTEIGER

@<TRIPOS>ATOM
      1 S         116.0409  151.8844  146.5632 S.2     1  UNL11111   -0.1269
      2 O         124.0999  154.8240  145.5754 O.3     1  UNL11111   -0.4593
      3 O         117.0888  151.9741  150.2786 O.3     1  UNL11111   -0.5783
      4 N         121.3859  151.6189  144.5687 N.ar    1  UNL11111   -0.3349
      5 N         119.4702  152.3130  148.3987 N.3     1  UNL11111   -0.3404
      6 C         123.9369  154.1498  146.8281 C.3     1  UNL11111    0.0110
      7 C         121.4981  153.5350  146.1191 C.3     1  UNL11111    0.0128
      8 C         122.4500  154.0699  147.2258 C.3     1  UNL11111   -0.0152
      9 C         124.7240  154.9642  147.8706 C.3     1  UNL11111   -0.0341
     10 C         124.7165  152.8290  146.8577 C.3     1  UNL11111   -0.0341
     11 C         121.8570  154.3346  144.8256 C.3     1  UNL11111   -0.0192
     12 C         126.1900  154.6096  147.6257 C.3     1  UNL11111   -0.0539
     13 C         126.1821  153.2556  146.9218 C.3     1  UNL11111   -0.0539
     14 C         120.0000  153.8730  146.4382 C.3     1  UNL11111   -0.0315
     15 C         123.3407  154.2684  144.5051 C.3     1  UNL11111    0.0064
     16 C         121.6177  152.0251  145.8455 C.ar    1  UNL11111   -0.0010
     17 C         119.4836  153.6746  147.8733 C.3     1  UNL11111   -0.0284
     18 C         121.9057  151.0933  146.8430 C.ar    1  UNL11111   -0.0514
     19 C         121.9820  149.7375  146.5249 C.ar    1  UNL11111   -0.0708
     20 C         121.4651  150.3002  144.2840 C.ar    1  UNL11111   -0.0127
     21 C         118.5317  151.4136  147.7082 C.3     1  UNL11111    0.0161
     22 C         121.7611  149.3293  145.2192 C.ar    1  UNL11111   -0.0571
     23 C         117.0859  151.7703  147.9208 C.ar    1  UNL11111    0.0248
     24 C         116.4102  152.0209  149.1018 C.ar    1  UNL11111    0.0564
     25 C         115.0290  152.3053  148.8812 C.ar    1  UNL11111   -0.0135
     26 C         114.6979  152.2639  147.5451 C.ar    1  UNL11111   -0.0275
     27 C         116.3483  152.4101  151.4110 C.3     1  UNL11111    0.0304
     28 H         119.1682  152.3448  149.3759 H       1  UNL11111    0.1338
     29 H         122.1274  155.0977  147.4512 H       1  UNL11111    0.0529
     30 H         122.3428  153.5166  148.1650 H       1  UNL11111    0.0529
     31 H         124.4458  154.6672  148.8896 H       1  UNL11111    0.0462
     32 H         124.5656  156.0434  147.7714 H       1  UNL11111    0.0462
     33 H         124.5547  152.1887  145.9877 H       1  UNL11111    0.0462
     34 H         124.4728  152.2553  147.7600 H       1  UNL11111    0.0462
     35 H         121.6049  155.3929  144.9832 H       1  UNL11111    0.0502
     36 H         121.2681  154.0061  143.9611 H       1  UNL11111    0.0502
     37 H         126.7488  154.5751  148.5665 H       1  UNL11111    0.0342
     38 H         126.6689  155.3610  146.9875 H       1  UNL11111    0.0342
     39 H         126.5926  153.3603  145.9106 H       1  UNL11111    0.0342
     40 H         126.7925  152.5157  147.4490 H       1  UNL11111    0.0342
     41 H         119.3407  153.3526  145.7311 H       1  UNL11111    0.0446
     42 H         119.8422  154.9415  146.2313 H       1  UNL11111    0.0446
     43 H         123.6805  153.2544  144.2763 H       1  UNL11111    0.0891
     44 H         123.5459  154.8764  143.6177 H       1  UNL11111    0.0891
     45 H         120.0942  154.2814  148.5517 H       1  UNL11111    0.0605
     46 H         118.4795  154.1113  147.9418 H       1  UNL11111    0.0605
     47 H         122.0489  151.3936  147.8749 H       1  UNL11111    0.1002
     48 H         122.2027  149.0089  147.2995 H       1  UNL11111    0.0906
     49 H         121.2750  150.0403  143.2469 H       1  UNL11111    0.1371
     50 H         118.6873  150.4053  148.1128 H       1  UNL11111    0.0805
     51 H         118.7793  151.3411  146.6441 H       1  UNL11111    0.0805
     52 H         121.8103  148.2837  144.9397 H       1  UNL11111    0.0980
     53 H         114.2990  152.5280  149.6479 H       1  UNL11111    0.1153
     54 H         113.7291  152.4367  147.0969 H       1  UNL11111    0.1125
     55 H         117.0156  152.3835  152.2778 H       1  UNL11111    0.1070
     56 H         115.5080  151.7384  151.6154 H       1  UNL11111    0.1070
     57 H         116.0048  153.4430  151.2870 H       1  UNL11111    0.1070
@<TRIPOS>BOND
     1     1    23   ar
     2     1    26   ar
     3     2     6    1
     4     2    15    1
     5     3    24    1
     6     3    27    1
     7     4    16   ar
     8     4    20   ar
     9     5    17    1
    10     5    21    1
    11     6     8    1
    12     6     9    1
    13     6    10    1
    14     7     8    1
    15     7    11    1
    16     7    14    1
    17     7    16    1
    18     9    12    1
    19    10    13    1
    20    11    15    1
    21    12    13    1
    22    14    17    1
    23    16    18   ar
    24    18    19   ar
    25    19    22   ar
    26    20    22   ar
    27    21    23    1
    28    23    24   ar
    29    24    25   ar
    30    25    26   ar
    31     5    28    1
    32     8    29    1
    33     8    30    1
    34     9    31    1
    35     9    32    1
    36    10    33    1
    37    10    34    1
    38    11    35    1
    39    11    36    1
    40    12    37    1
    41    12    38    1
    42    13    39    1
    43    13    40    1
    44    14    41    1
    45    14    42    1
    46    15    43    1
    47    15    44    1
    48    17    45    1
    49    17    46    1
    50    18    47    1
    51    19    48    1
    52    20    49    1
    53    21    50    1
    54    21    51    1
    55    22    52    1
    56    25    53    1
    57    26    54    1
    58    27    55    1
    59    27    56    1
    60    27    57    1
@<TRIPOS>MOLECULE
66553195
 57 60 0 0 0
SMALL
GASTEIGER

@<TRIPOS>ATOM
      1 S         122.8343  155.6132  151.1692 S.2     1  UNL11111   -0.1269
      2 O         124.1877  154.7309  145.5644 O.3     1  UNL11111   -0.4593
      3 O         119.3533  157.1188  151.8955 O.3     1  UNL11111   -0.5783
      4 N         121.8336  151.2622  147.0345 N.ar    1  UNL11111   -0.3349
      5 N         120.5491  155.8900  148.6108 N.3     1  UNL11111   -0.3404
      6 C         124.1557  153.8956  146.7319 C.3     1  UNL11111    0.0110
      7 C         121.5844  153.6393  146.4153 C.3     1  UNL11111    0.0128
      8 C         122.7632  153.9248  147.3880 C.3     1  UNL11111   -0.0152
      9 C         125.2121  154.4550  147.7015 C.3     1  UNL11111   -0.0341
     10 C         124.7425  152.5083  146.4438 C.3     1  UNL11111   -0.0341
     11 C         121.7868  154.5900  145.2099 C.3     1  UNL11111   -0.0192
     12 C         126.5516  153.9901  147.1344 C.3     1  UNL11111   -0.0539
     13 C         126.2447  152.7497  146.3003 C.3     1  UNL11111   -0.0539
     14 C         120.1869  153.8760  147.0849 C.3     1  UNL11111   -0.0315
     15 C         123.1783  154.4497  144.6028 C.3     1  UNL11111    0.0064
     16 C         121.5577  152.1405  146.0347 C.ar    1  UNL11111   -0.0010
     17 C         119.7770  155.2909  147.5282 C.3     1  UNL11111   -0.0284
     18 C         121.1809  151.6840  144.7698 C.ar    1  UNL11111   -0.0514
     19 C         121.1343  150.3126  144.5186 C.ar    1  UNL11111   -0.0708
     20 C         121.7814  149.9391  146.7668 C.ar    1  UNL11111   -0.0127
     21 C         120.3987  155.1786  149.8847 C.3     1  UNL11111    0.0161
     22 C         121.4440  149.4199  145.5333 C.ar    1  UNL11111   -0.0571
     23 C         121.1516  155.8937  150.9703 C.ar    1  UNL11111    0.0248
     24 C         120.6716  156.7896  151.9066 C.ar    1  UNL11111    0.0564
     25 C         121.7000  157.2545  152.7811 C.ar    1  UNL11111   -0.0135
     26 C         122.9237  156.6943  152.4869 C.ar    1  UNL11111   -0.0275
     27 C         118.9452  157.9820  152.9480 C.3     1  UNL11111    0.0304
     28 H         120.2360  156.8501  148.7565 H       1  UNL11111    0.1338
     29 H         122.6453  154.9441  147.7684 H       1  UNL11111    0.0529
     30 H         122.7348  153.2677  148.2658 H       1  UNL11111    0.0529
     31 H         125.0800  154.0366  148.7070 H       1  UNL11111    0.0462
     32 H         125.1818  155.5473  147.7759 H       1  UNL11111    0.0462
     33 H         124.3568  152.0342  145.5384 H       1  UNL11111    0.0462
     34 H         124.5692  151.8321  147.2895 H       1  UNL11111    0.0462
     35 H         121.6958  155.6276  145.5552 H       1  UNL11111    0.0502
     36 H         121.0181  154.4556  144.4420 H       1  UNL11111    0.0502
     37 H         127.2669  153.7762  147.9351 H       1  UNL11111    0.0342
     38 H         126.9927  154.7675  146.4999 H       1  UNL11111    0.0342
     39 H         126.5032  152.9340  145.2510 H       1  UNL11111    0.0342
     40 H         126.8215  151.8807  146.6324 H       1  UNL11111    0.0342
     41 H         120.0700  153.1923  147.9364 H       1  UNL11111    0.0446
     42 H         119.4149  153.5575  146.3676 H       1  UNL11111    0.0446
     43 H         123.3460  153.4656  144.1565 H       1  UNL11111    0.0891
     44 H         123.2922  155.1804  143.7949 H       1  UNL11111    0.0891
     45 H         119.8210  155.9636  146.6651 H       1  UNL11111    0.0605
     46 H         118.7184  155.2683  147.8186 H       1  UNL11111    0.0605
     47 H         120.9131  152.3633  143.9697 H       1  UNL11111    0.1002
     48 H         120.8504  149.9468  143.5358 H       1  UNL11111    0.0906
     49 H         122.0255  149.2895  147.6022 H       1  UNL11111    0.1371
     50 H         120.7751  154.1525  149.8085 H       1  UNL11111    0.0805
     51 H         119.3384  155.1120  150.1577 H       1  UNL11111    0.0805
     52 H         121.4158  148.3490  145.3699 H       1  UNL11111    0.0980
     53 H         121.5717  157.9630  153.5880 H       1  UNL11111    0.1153
     54 H         123.8686  156.8671  152.9829 H       1  UNL11111    0.1125
     55 H         117.8679  158.1462  152.8480 H       1  UNL11111    0.1070
     56 H         119.4393  158.9566  152.8738 H       1  UNL11111    0.1070
     57 H         119.1230  157.5250  153.9275 H       1  UNL11111    0.1070
@<TRIPOS>BOND
     1     1    23   ar
     2     1    26   ar
     3     2     6    1
     4     2    15    1
     5     3    24    1
     6     3    27    1
     7     4    16   ar
     8     4    20   ar
     9     5    17    1
    10     5    21    1
    11     6     8    1
    12     6     9    1
    13     6    10    1
    14     7     8    1
    15     7    11    1
    16     7    14    1
    17     7    16    1
    18     9    12    1
    19    10    13    1
    20    11    15    1
    21    12    13    1
    22    14    17    1
    23    16    18   ar
    24    18    19   ar
    25    19    22   ar
    26    20    22   ar
    27    21    23    1
    28    23    24   ar
    29    24    25   ar
    30    25    26   ar
    31     5    28    1
    32     8    29    1
    33     8    30    1
    34     9    31    1
    35     9    32    1
    36    10    33    1
    37    10    34    1
    38    11    35    1
    39    11    36    1
    40    12    37    1
    41    12    38    1
    42    13    39    1
    43    13    40    1
    44    14    41    1
    45    14    42    1
    46    15    43    1
    47    15    44    1
    48    17    45    1
    49    17    46    1
    50    18    47    1
    51    19    48    1
    52    20    49    1
    53    21    50    1
    54    21    51    1
    55    22    52    1
    56    25    53    1
    57    26    54    1
    58    27    55    1
    59    27    56    1
    60    27    57    1
@<TRIPOS>MOLECULE
66553195
 57 60 0 0 0
SMALL
GASTEIGER

@<TRIPOS>ATOM
      1 S         118.1282  156.9660  150.9102 S.2     1  UNL11111   -0.1269
      2 O         124.0612  154.8767  145.4911 O.3     1  UNL11111   -0.4593
      3 O         117.9024  153.2607  149.8507 O.3     1  UNL11111   -0.5783
      4 N         121.4435  151.7894  144.7733 N.ar    1  UNL11111   -0.3349
      5 N         120.2919  155.9577  148.4786 N.3     1  UNL11111   -0.3404
      6 C         124.0577  154.1275  146.7125 C.3     1  UNL11111    0.0110
      7 C         121.5160  153.6843  146.3815 C.3     1  UNL11111    0.0128
      8 C         122.6528  154.1202  147.3435 C.3     1  UNL11111   -0.0152
      9 C         125.0598  154.8182  147.6546 C.3     1  UNL11111   -0.0341
     10 C         124.7277  152.7584  146.5407 C.3     1  UNL11111   -0.0341
     11 C         121.6865  154.5317  145.0917 C.3     1  UNL11111   -0.0192
     12 C         126.4350  154.3913  147.1462 C.3     1  UNL11111   -0.0539
     13 C         126.2168  153.0747  146.4061 C.3     1  UNL11111   -0.0539
     14 C         120.0850  153.9000  146.9831 C.3     1  UNL11111   -0.0315
     15 C         123.1012  154.4462  144.5293 C.3     1  UNL11111    0.0064
     16 C         121.5779  152.1701  146.0690 C.ar    1  UNL11111   -0.0010
     17 C         119.6178  155.3184  147.3495 C.3     1  UNL11111   -0.0284
     18 C         121.6926  151.2199  147.0888 C.ar    1  UNL11111   -0.0514
     19 C         121.7098  149.8640  146.7675 C.ar    1  UNL11111   -0.0708
     20 C         121.4632  150.4686  144.4877 C.ar    1  UNL11111   -0.0127
     21 C         120.0638  155.3127  149.7771 C.3     1  UNL11111    0.0161
     22 C         121.5970  149.4773  145.4406 C.ar    1  UNL11111   -0.0571
     23 C         118.6555  155.4607  150.2746 C.ar    1  UNL11111    0.0248
     24 C         117.6507  154.5126  150.3134 C.ar    1  UNL11111    0.0564
     25 C         116.4435  155.0317  150.8698 C.ar    1  UNL11111   -0.0135
     26 C         116.5675  156.3546  151.2340 C.ar    1  UNL11111   -0.0275
     27 C         116.7647  152.4135  149.7693 C.3     1  UNL11111    0.0304
     28 H         119.9691  156.9231  148.5514 H       1  UNL11111    0.1338
     29 H         122.4628  155.1579  147.6372 H       1  UNL11111    0.0529
     30 H         122.6496  153.5396  148.2726 H       1  UNL11111    0.0529
     31 H         124.9308  154.4690  148.6867 H       1  UNL11111    0.0462
     32 H         124.9660  155.9094  147.6457 H       1  UNL11111    0.0462
     33 H         124.3904  152.1955  145.6676 H       1  UNL11111    0.0462
     34 H         124.5724  152.1381  147.4318 H       1  UNL11111    0.0462
     35 H         121.5052  155.5870  145.3279 H       1  UNL11111    0.0502
     36 H         120.9573  154.2521  144.3222 H       1  UNL11111    0.0502
     37 H         127.1455  154.2821  147.9718 H       1  UNL11111    0.0342
     38 H         126.8426  155.1426  146.4601 H       1  UNL11111    0.0342
     39 H         126.4880  153.1927  145.3505 H       1  UNL11111    0.0342
     40 H         126.8340  152.2687  146.8154 H       1  UNL11111    0.0342
     41 H         119.9517  153.2514  147.8574 H       1  UNL11111    0.0446
     42 H         119.3564  153.5238  146.2484 H       1  UNL11111    0.0446
     43 H         123.3570  153.4487  144.1629 H       1  UNL11111    0.0891
     44 H         123.1853  155.1206  143.6703 H       1  UNL11111    0.0891
     45 H         119.7315  155.9712  146.4781 H       1  UNL11111    0.0605
     46 H         118.5367  155.2909  147.5328 H       1  UNL11111    0.0605
     47 H         121.7586  151.5162  148.1303 H       1  UNL11111    0.1002
     48 H         121.8048  149.1177  147.5509 H       1  UNL11111    0.0906
     49 H         121.3627  150.2230  143.4345 H       1  UNL11111    0.1371
     50 H         120.7444  155.7799  150.5007 H       1  UNL11111    0.0805
     51 H         120.3653  154.2603  149.7540 H       1  UNL11111    0.0805
     52 H         121.6056  148.4316  145.1566 H       1  UNL11111    0.0980
     53 H         115.5230  154.4805  151.0077 H       1  UNL11111    0.1153
     54 H         115.8155  156.9922  151.6782 H       1  UNL11111    0.1125
     55 H         117.0847  151.4647  149.3279 H       1  UNL11111    0.1070
     56 H         115.9958  152.8420  149.1171 H       1  UNL11111    0.1070
     57 H         116.3608  152.1994  150.7644 H       1  UNL11111    0.1070
@<TRIPOS>BOND
     1     1    23   ar
     2     1    26   ar
     3     2     6    1
     4     2    15    1
     5     3    24    1
     6     3    27    1
     7     4    16   ar
     8     4    20   ar
     9     5    17    1
    10     5    21    1
    11     6     8    1
    12     6     9    1
    13     6    10    1
    14     7     8    1
    15     7    11    1
    16     7    14    1
    17     7    16    1
    18     9    12    1
    19    10    13    1
    20    11    15    1
    21    12    13    1
    22    14    17    1
    23    16    18   ar
    24    18    19   ar
    25    19    22   ar
    26    20    22   ar
    27    21    23    1
    28    23    24   ar
    29    24    25   ar
    30    25    26   ar
    31     5    28    1
    32     8    29    1
    33     8    30    1
    34     9    31    1
    35     9    32    1
    36    10    33    1
    37    10    34    1
    38    11    35    1
    39    11    36    1
    40    12    37    1
    41    12    38    1
    42    13    39    1
    43    13    40    1
    44    14    41    1
    45    14    42    1
    46    15    43    1
    47    15    44    1
    48    17    45    1
    49    17    46    1
    50    18    47    1
    51    19    48    1
    52    20    49    1
    53    21    50    1
    54    21    51    1
    55    22    52    1
    56    25    53    1
    57    26    54    1
    58    27    55    1
    59    27    56    1
    60    27    57    1
@<TRIPOS>MOLECULE
66553195
 57 60 0 0 0
SMALL
GASTEIGER

@<TRIPOS>ATOM
      1 S         116.3004  150.9428  149.2551 S.2     1  UNL11111   -0.1269
      2 O         124.0546  154.8921  145.7864 O.3     1  UNL11111   -0.4593
      3 O         116.5113  152.9436  145.9611 O.3     1  UNL11111   -0.5783
      4 N         121.3561  151.7495  144.5857 N.ar    1  UNL11111   -0.3349
      5 N         119.4029  151.9835  148.3417 N.3     1  UNL11111   -0.3404
      6 C         123.9313  154.1160  146.9834 C.3     1  UNL11111    0.0110
      7 C         121.4809  153.5331  146.2877 C.3     1  UNL11111    0.0128
      8 C         122.4565  153.9837  147.4115 C.3     1  UNL11111   -0.0152
      9 C         124.7375  154.8532  148.0677 C.3     1  UNL11111   -0.0341
     10 C         124.7251  152.8069  146.8855 C.3     1  UNL11111   -0.0341
     11 C         121.7986  154.4408  145.0562 C.3     1  UNL11111   -0.0192
     12 C         126.1998  154.5416  147.7523 C.3     1  UNL11111   -0.0539
     13 C         126.1877  153.2441  146.9487 C.3     1  UNL11111   -0.0539
     14 C         119.9936  153.8402  146.6760 C.3     1  UNL11111   -0.0315
     15 C         123.2736  154.4166  144.6937 C.3     1  UNL11111    0.0064
     16 C         121.6056  152.0524  145.8876 C.ar    1  UNL11111   -0.0010
     17 C         119.4825  153.4149  148.0641 C.3     1  UNL11111   -0.0284
     18 C         121.9226  151.0455  146.8000 C.ar    1  UNL11111   -0.0514
     19 C         122.0060  149.7210  146.3715 C.ar    1  UNL11111   -0.0708
     20 C         121.4421  150.4590  144.1938 C.ar    1  UNL11111   -0.0127
     21 C         118.4389  151.2630  147.4946 C.3     1  UNL11111    0.0161
     22 C         121.7645  149.4182  145.0412 C.ar    1  UNL11111   -0.0571
     23 C         117.0096  151.5852  147.8292 C.ar    1  UNL11111    0.0248
     24 C         116.1112  152.3598  147.1196 C.ar    1  UNL11111    0.0564
     25 C         114.8367  152.4253  147.7581 C.ar    1  UNL11111   -0.0135
     26 C         114.8051  151.6992  148.9284 C.ar    1  UNL11111   -0.0275
     27 C         115.5402  153.7709  145.3370 C.3     1  UNL11111    0.0304
     28 H         119.1125  151.8497  149.3105 H       1  UNL11111    0.1338
     29 H         122.1290  154.9839  147.7335 H       1  UNL11111    0.0529
     30 H         122.3800  153.3513  148.3024 H       1  UNL11111    0.0529
     31 H         124.4927  154.4693  149.0658 H       1  UNL11111    0.0462
     32 H         124.5631  155.9345  148.0623 H       1  UNL11111    0.0462
     33 H         124.5473  152.2377  145.9703 H       1  UNL11111    0.0462
     34 H         124.5098  152.1585  147.7434 H       1  UNL11111    0.0462
     35 H         121.5406  155.4795  145.3065 H       1  UNL11111    0.0502
     36 H         121.1904  154.1776  144.1827 H       1  UNL11111    0.0502
     37 H         126.7891  154.4464  148.6699 H       1  UNL11111    0.0342
     38 H         126.6471  155.3462  147.1574 H       1  UNL11111    0.0342
     39 H         126.5742  153.4286  145.9395 H       1  UNL11111    0.0342
     40 H         126.8167  152.4735  147.4054 H       1  UNL11111    0.0342
     41 H         119.3228  153.4576  145.8966 H       1  UNL11111    0.0446
     42 H         119.8572  154.9312  146.6485 H       1  UNL11111    0.0446
     43 H         123.6167  153.4284  144.3748 H       1  UNL11111    0.0891
     44 H         123.4503  155.0967  143.8537 H       1  UNL11111    0.0891
     45 H         120.1300  153.8616  148.8271 H       1  UNL11111    0.0605
     46 H         118.5016  153.8779  148.2280 H       1  UNL11111    0.0605
     47 H         122.0804  151.2618  147.8505 H       1  UNL11111    0.1002
     48 H         122.2470  148.9343  147.0804 H       1  UNL11111    0.0906
     49 H         121.2351  150.2818  143.1426 H       1  UNL11111    0.1371
     50 H         118.6027  150.1889  147.6505 H       1  UNL11111    0.0805
     51 H         118.6387  151.4245  146.4306 H       1  UNL11111    0.0805
     52 H         121.8176  148.3993  144.6769 H       1  UNL11111    0.0980
     53 H         113.9751  152.9688  147.3940 H       1  UNL11111    0.1153
     54 H         113.9730  151.5748  149.6076 H       1  UNL11111    0.1125
     55 H         115.9911  154.1941  144.4341 H       1  UNL11111    0.1070
     56 H         115.2523  154.6039  145.9874 H       1  UNL11111    0.1070
     57 H         114.6634  153.1902  145.0314 H       1  UNL11111    0.1070
@<TRIPOS>BOND
     1     1    23   ar
     2     1    26   ar
     3     2     6    1
     4     2    15    1
     5     3    24    1
     6     3    27    1
     7     4    16   ar
     8     4    20   ar
     9     5    17    1
    10     5    21    1
    11     6     8    1
    12     6     9    1
    13     6    10    1
    14     7     8    1
    15     7    11    1
    16     7    14    1
    17     7    16    1
    18     9    12    1
    19    10    13    1
    20    11    15    1
    21    12    13    1
    22    14    17    1
    23    16    18   ar
    24    18    19   ar
    25    19    22   ar
    26    20    22   ar
    27    21    23    1
    28    23    24   ar
    29    24    25   ar
    30    25    26   ar
    31     5    28    1
    32     8    29    1
    33     8    30    1
    34     9    31    1
    35     9    32    1
    36    10    33    1
    37    10    34    1
    38    11    35    1
    39    11    36    1
    40    12    37    1
    41    12    38    1
    42    13    39    1
    43    13    40    1
    44    14    41    1
    45    14    42    1
    46    15    43    1
    47    15    44    1
    48    17    45    1
    49    17    46    1
    50    18    47    1
    51    19    48    1
    52    20    49    1
    53    21    50    1
    54    21    51    1
    55    22    52    1
    56    25    53    1
    57    26    54    1
    58    27    55    1
    59    27    56    1
    60    27    57    1
@<TRIPOS>MOLECULE
66553195
 57 60 0 0 0
SMALL
GASTEIGER

@<TRIPOS>ATOM
      1 S         121.9292  150.9587  150.5866 S.2     1  UNL11111   -0.1269
      2 O         123.6966  155.1000  145.4790 O.3     1  UNL11111   -0.4593
      3 O         118.7632  150.9355  152.7816 O.3     1  UNL11111   -0.5783
      4 N         121.0141  151.6091  144.8535 N.ar    1  UNL11111   -0.3349
      5 N         119.6129  151.6107  148.5649 N.3     1  UNL11111   -0.3404
      6 C         123.8912  154.3543  146.6847 C.3     1  UNL11111    0.0110
      7 C         121.4428  153.4452  146.4342 C.3     1  UNL11111    0.0128
      8 C         122.5466  154.0240  147.3662 C.3     1  UNL11111   -0.0152
      9 C         124.7523  155.2340  147.6100 C.3     1  UNL11111   -0.0341
     10 C         124.8449  153.1744  146.4572 C.3     1  UNL11111   -0.0341
     11 C         121.4241  154.3612  145.1694 C.3     1  UNL11111   -0.0192
     12 C         126.1727  155.1242  147.0569 C.3     1  UNL11111   -0.0539
     13 C         126.2135  153.8235  146.2603 C.3     1  UNL11111   -0.0539
     14 C         120.0283  153.5944  147.1006 C.3     1  UNL11111   -0.0315
     15 C         122.8032  154.4957  144.5485 C.3     1  UNL11111    0.0064
     16 C         121.6433  151.9852  145.9973 C.ar    1  UNL11111   -0.0010
     17 C         119.8043  153.0540  148.5260 C.3     1  UNL11111   -0.0284
     18 C         122.3849  151.0598  146.7311 C.ar    1  UNL11111   -0.0514
     19 C         122.4873  149.7417  146.2867 C.ar    1  UNL11111   -0.0708
     20 C         121.1237  150.3265  144.4425 C.ar    1  UNL11111   -0.0127
     21 C         119.1920  151.1057  149.8743 C.3     1  UNL11111    0.0161
     22 C         121.8448  149.3638  145.1188 C.ar    1  UNL11111   -0.0571
     23 C         120.2523  151.0473  150.9465 C.ar    1  UNL11111    0.0248
     24 C         120.0376  150.9593  152.3108 C.ar    1  UNL11111    0.0564
     25 C         121.2532  150.9192  153.0564 C.ar    1  UNL11111   -0.0135
     26 C         122.3596  150.9275  152.2362 C.ar    1  UNL11111   -0.0275
     27 C         118.6349  150.4626  154.1163 C.3     1  UNL11111    0.0304
     28 H         120.4484  151.1132  148.2742 H       1  UNL11111    0.1338
     29 H         122.1555  154.9735  147.7625 H       1  UNL11111    0.0529
     30 H         122.7154  153.3929  148.2450 H       1  UNL11111    0.0529
     31 H         124.7345  154.8526  148.6386 H       1  UNL11111    0.0462
     32 H         124.4237  156.2787  147.6247 H       1  UNL11111    0.0462
     33 H         124.5989  152.5569  145.5903 H       1  UNL11111    0.0462
     34 H         124.8850  152.5310  147.3440 H       1  UNL11111    0.0462
     35 H         121.0957  155.3676  145.4647 H       1  UNL11111    0.0502
     36 H         120.7061  154.0140  144.4172 H       1  UNL11111    0.0502
     37 H         126.9102  155.1279  147.8660 H       1  UNL11111    0.0342
     38 H         126.4007  155.9725  146.4016 H       1  UNL11111    0.0342
     39 H         126.3826  154.0418  145.1994 H       1  UNL11111    0.0342
     40 H         127.0215  153.1642  146.5929 H       1  UNL11111    0.0342
     41 H         119.2589  153.1755  146.4362 H       1  UNL11111    0.0446
     42 H         119.7993  154.6687  147.1576 H       1  UNL11111    0.0446
     43 H         123.2015  153.5414  144.1915 H       1  UNL11111    0.0891
     44 H         122.7470  155.1599  143.6796 H       1  UNL11111    0.0891
     45 H         120.6135  153.3757  149.1876 H       1  UNL11111    0.0605
     46 H         118.8896  153.5319  148.9006 H       1  UNL11111    0.0605
     47 H         122.8790  151.3285  147.6558 H       1  UNL11111    0.1002
     48 H         123.0600  149.0159  146.8572 H       1  UNL11111    0.0906
     49 H         120.5941  150.0895  143.5245 H       1  UNL11111    0.1371
     50 H         118.8240  150.0827  149.7255 H       1  UNL11111    0.0805
     51 H         118.3302  151.6841  150.2304 H       1  UNL11111    0.0805
     52 H         121.8992  148.3470  144.7486 H       1  UNL11111    0.0980
     53 H         121.3324  150.8817  154.1340 H       1  UNL11111    0.1153
     54 H         123.3997  150.9002  152.5296 H       1  UNL11111    0.1125
     55 H         117.5677  150.3535  154.3324 H       1  UNL11111    0.1070
     56 H         119.0489  151.1829  154.8292 H       1  UNL11111    0.1070
     57 H         119.1012  149.4783  154.2388 H       1  UNL11111    0.1070
@<TRIPOS>BOND
     1     1    23   ar
     2     1    26   ar
     3     2     6    1
     4     2    15    1
     5     3    24    1
     6     3    27    1
     7     4    16   ar
     8     4    20   ar
     9     5    17    1
    10     5    21    1
    11     6     8    1
    12     6     9    1
    13     6    10    1
    14     7     8    1
    15     7    11    1
    16     7    14    1
    17     7    16    1
    18     9    12    1
    19    10    13    1
    20    11    15    1
    21    12    13    1
    22    14    17    1
    23    16    18   ar
    24    18    19   ar
    25    19    22   ar
    26    20    22   ar
    27    21    23    1
    28    23    24   ar
    29    24    25   ar
    30    25    26   ar
    31     5    28    1
    32     8    29    1
    33     8    30    1
    34     9    31    1
    35     9    32    1
    36    10    33    1
    37    10    34    1
    38    11    35    1
    39    11    36    1
    40    12    37    1
    41    12    38    1
    42    13    39    1
    43    13    40    1
    44    14    41    1
    45    14    42    1
    46    15    43    1
    47    15    44    1
    48    17    45    1
    49    17    46    1
    50    18    47    1
    51    19    48    1
    52    20    49    1
    53    21    50    1
    54    21    51    1
    55    22    52    1
    56    25    53    1
    57    26    54    1
    58    27    55    1
    59    27    56    1
    60    27    57    1
@<TRIPOS>MOLECULE
66553195
 57 60 0 0 0
SMALL
GASTEIGER

@<TRIPOS>ATOM
      1 S         122.6687  154.3318  151.7110 S.2     1  UNL11111   -0.1269
      2 O         123.9367  154.9145  145.6479 O.3     1  UNL11111   -0.4593
      3 O         119.7065  152.6794  153.5549 O.3     1  UNL11111   -0.5783
      4 N         122.1100  151.1940  146.8748 N.ar    1  UNL11111   -0.3349
      5 N         120.4016  153.6913  149.5852 N.3     1  UNL11111   -0.3404
      6 C         123.9964  154.0695  146.8055 C.3     1  UNL11111    0.0110
      7 C         121.4532  153.5470  146.4785 C.3     1  UNL11111    0.0128
      8 C         122.6094  153.9123  147.4551 C.3     1  UNL11111   -0.0152
      9 C         124.9708  154.7408  147.7903 C.3     1  UNL11111   -0.0341
     10 C         124.7516  152.7677  146.5072 C.3     1  UNL11111   -0.0341
     11 C         121.5801  154.5284  145.2795 C.3     1  UNL11111   -0.0192
     12 C         126.3627  154.4434  147.2355 C.3     1  UNL11111   -0.0539
     13 C         126.2112  153.1965  146.3689 C.3     1  UNL11111   -0.0539
     14 C         120.0518  153.7947  147.1397 C.3     1  UNL11111   -0.0315
     15 C         122.9768  154.5143  144.6790 C.3     1  UNL11111    0.0064
     16 C         121.5006  152.0707  146.0381 C.ar    1  UNL11111   -0.0010
     17 C         119.7582  153.0409  148.4476 C.3     1  UNL11111   -0.0284
     18 C         120.8691  151.6201  144.8760 C.ar    1  UNL11111   -0.0514
     19 C         120.9039  150.2639  144.5521 C.ar    1  UNL11111   -0.0708
     20 C         122.1325  149.8850  146.5409 C.ar    1  UNL11111   -0.0127
     21 C         120.5704  152.7665  150.7079 C.3     1  UNL11111    0.0161
     22 C         121.5515  149.3762  145.3972 C.ar    1  UNL11111   -0.0571
     23 C         121.2116  153.4361  151.8934 C.ar    1  UNL11111    0.0248
     24 C         120.8160  153.3875  153.2176 C.ar    1  UNL11111    0.0564
     25 C         121.6811  154.1393  154.0688 C.ar    1  UNL11111   -0.0135
     26 C         122.7244  154.7093  153.3739 C.ar    1  UNL11111   -0.0275
     27 C         119.5295  152.4810  154.9510 C.3     1  UNL11111    0.0304
     28 H         119.8535  154.4930  149.8916 H       1  UNL11111    0.1338
     29 H         122.3557  154.8856  147.9008 H       1  UNL11111    0.0529
     30 H         122.6787  153.2025  148.2873 H       1  UNL11111    0.0529
     31 H         124.8795  154.3010  148.7913 H       1  UNL11111    0.0462
     32 H         124.8103  155.8211  147.8732 H       1  UNL11111    0.0462
     33 H         124.4261  152.2559  145.5986 H       1  UNL11111    0.0462
     34 H         124.6652  152.0687  147.3481 H       1  UNL11111    0.0462
     35 H         121.3853  155.5477  145.6421 H       1  UNL11111    0.0502
     36 H         120.8351  154.3395  144.5006 H       1  UNL11111    0.0502
     37 H         127.0844  154.2909  148.0446 H       1  UNL11111    0.0342
     38 H         126.7240  155.2805  146.6274 H       1  UNL11111    0.0342
     39 H         126.4399  153.4393  145.3247 H       1  UNL11111    0.0342
     40 H         126.8935  152.3981  146.6775 H       1  UNL11111    0.0342
     41 H         119.2682  153.5207  146.4191 H       1  UNL11111    0.0446
     42 H         119.9150  154.8707  147.3179 H       1  UNL11111    0.0446
     43 H         123.2393  153.5417  144.2525 H       1  UNL11111    0.0891
     44 H         123.0250  155.2400  143.8602 H       1  UNL11111    0.0891
     45 H         118.6746  153.0386  148.6189 H       1  UNL11111    0.0605
     46 H         120.0588  151.9928  148.3557 H       1  UNL11111    0.0605
     47 H         120.3336  152.2951  144.2186 H       1  UNL11111    0.1002
     48 H         120.4202  149.9055  143.6478 H       1  UNL11111    0.0906
     49 H         122.6470  149.2386  147.2458 H       1  UNL11111    0.1371
     50 H         121.2045  151.9222  150.4086 H       1  UNL11111    0.0805
     51 H         119.5933  152.3595  150.9945 H       1  UNL11111    0.0805
     52 H         121.5957  148.3165  145.1753 H       1  UNL11111    0.0980
     53 H         121.5643  154.2648  155.1366 H       1  UNL11111    0.1153
     54 H         123.5243  155.3230  153.7639 H       1  UNL11111    0.1125
     55 H         118.6641  151.8257  155.0891 H       1  UNL11111    0.1070
     56 H         119.3164  153.4272  155.4591 H       1  UNL11111    0.1070
     57 H         120.3982  151.9832  155.3962 H       1  UNL11111    0.1070
@<TRIPOS>BOND
     1     1    23   ar
     2     1    26   ar
     3     2     6    1
     4     2    15    1
     5     3    24    1
     6     3    27    1
     7     4    16   ar
     8     4    20   ar
     9     5    17    1
    10     5    21    1
    11     6     8    1
    12     6     9    1
    13     6    10    1
    14     7     8    1
    15     7    11    1
    16     7    14    1
    17     7    16    1
    18     9    12    1
    19    10    13    1
    20    11    15    1
    21    12    13    1
    22    14    17    1
    23    16    18   ar
    24    18    19   ar
    25    19    22   ar
    26    20    22   ar
    27    21    23    1
    28    23    24   ar
    29    24    25   ar
    30    25    26   ar
    31     5    28    1
    32     8    29    1
    33     8    30    1
    34     9    31    1
    35     9    32    1
    36    10    33    1
    37    10    34    1
    38    11    35    1
    39    11    36    1
    40    12    37    1
    41    12    38    1
    42    13    39    1
    43    13    40    1
    44    14    41    1
    45    14    42    1
    46    15    43    1
    47    15    44    1
    48    17    45    1
    49    17    46    1
    50    18    47    1
    51    19    48    1
    52    20    49    1
    53    21    50    1
    54    21    51    1
    55    22    52    1
    56    25    53    1
    57    26    54    1
    58    27    55    1
    59    27    56    1
    60    27    57    1
@<TRIPOS>MOLECULE
66553195
 57 60 0 0 0
SMALL
GASTEIGER

@<TRIPOS>ATOM
      1 S         117.5172  155.7923  149.4388 S.2     1  UNL11111   -0.1269
      2 O         123.8816  154.8685  145.8181 O.3     1  UNL11111   -0.4593
      3 O         118.2194  157.1112  145.8777 O.3     1  UNL11111   -0.5783
      4 N         121.8139  151.0273  147.0818 N.ar    1  UNL11111   -0.3349
      5 N         117.5593  153.3895  147.1173 N.3     1  UNL11111   -0.3404
      6 C         123.9386  153.9434  146.9122 C.3     1  UNL11111    0.0110
      7 C         121.4296  153.3817  146.4996 C.3     1  UNL11111    0.0128
      8 C         122.5440  153.7573  147.5271 C.3     1  UNL11111   -0.0152
      9 C         124.9068  154.5422  147.9467 C.3     1  UNL11111   -0.0341
     10 C         124.6839  152.6566  146.5352 C.3     1  UNL11111   -0.0341
     11 C         121.5368  154.4133  145.3483 C.3     1  UNL11111   -0.0192
     12 C         126.3002  154.2739  147.3813 C.3     1  UNL11111   -0.0539
     13 C         126.1504  153.0758  146.4478 C.3     1  UNL11111   -0.0539
     14 C         120.0546  153.5396  147.2317 C.3     1  UNL11111   -0.0315
     15 C         122.9537  154.5235  144.7976 C.3     1  UNL11111    0.0064
     16 C         121.5682  151.9105  146.0790 C.ar    1  UNL11111   -0.0010
     17 C         118.8114  153.2785  146.3650 C.3     1  UNL11111   -0.0284
     18 C         121.3967  151.4687  144.7661 C.ar    1  UNL11111   -0.0514
     19 C         121.5059  150.1083  144.4780 C.ar    1  UNL11111   -0.0708
     20 C         121.9129  149.7145  146.7781 C.ar    1  UNL11111   -0.0127
     21 C         116.8780  154.6777  146.9650 C.3     1  UNL11111    0.0161
     22 C         121.7713  149.2109  145.5009 C.ar    1  UNL11111   -0.0571
     23 C         117.5264  155.8000  147.7203 C.ar    1  UNL11111    0.0248
     24 C         118.1413  156.9330  147.2220 C.ar    1  UNL11111    0.0564
     25 C         118.6415  157.7742  148.2609 C.ar    1  UNL11111   -0.0135
     26 C         118.3716  157.2681  149.5133 C.ar    1  UNL11111   -0.0275
     27 C         118.6563  158.4020  145.4735 C.3     1  UNL11111    0.0304
     28 H         117.7177  153.2072  148.1074 H       1  UNL11111    0.1338
     29 H         122.2621  154.7202  147.9792 H       1  UNL11111    0.0529
     30 H         122.5847  153.0433  148.3595 H       1  UNL11111    0.0529
     31 H         124.8060  154.0366  148.9152 H       1  UNL11111    0.0462
     32 H         124.7519  155.6155  148.1003 H       1  UNL11111    0.0462
     33 H         124.3696  152.2108  145.5890 H       1  UNL11111    0.0462
     34 H         124.5733  151.9017  147.3233 H       1  UNL11111    0.0462
     35 H         121.2569  155.4006  145.7421 H       1  UNL11111    0.0502
     36 H         120.8406  154.2042  144.5303 H       1  UNL11111    0.0502
     37 H         127.0206  154.0784  148.1821 H       1  UNL11111    0.0342
     38 H         126.6625  155.1423  146.8193 H       1  UNL11111    0.0342
     39 H         126.4027  153.3698  145.4223 H       1  UNL11111    0.0342
     40 H         126.8174  152.2540  146.7270 H       1  UNL11111    0.0342
     41 H         119.9979  154.5552  147.6389 H       1  UNL11111    0.0446
     42 H         120.0262  152.8665  148.1004 H       1  UNL11111    0.0446
     43 H         123.2750  153.6112  144.2874 H       1  UNL11111    0.0891
     44 H         122.9861  155.3234  144.0501 H       1  UNL11111    0.0891
     45 H         118.7978  153.9254  145.4816 H       1  UNL11111    0.0605
     46 H         118.8492  152.2505  145.9903 H       1  UNL11111    0.0605
     47 H         121.1684  152.1483  143.9539 H       1  UNL11111    0.1002
     48 H         121.3755  149.7535  143.4594 H       1  UNL11111    0.0906
     49 H         122.1138  149.0595  147.6207 H       1  UNL11111    0.1371
     50 H         115.8521  154.5577  147.3361 H       1  UNL11111    0.0805
     51 H         116.7694  154.9256  145.9023 H       1  UNL11111    0.0805
     52 H         121.8576  148.1478  145.3097 H       1  UNL11111    0.0980
     53 H         119.1750  158.7045  148.1189 H       1  UNL11111    0.1153
     54 H         118.6324  157.6972  150.4710 H       1  UNL11111    0.1125
     55 H         118.5958  158.4497  144.3820 H       1  UNL11111    0.1070
     56 H         119.7000  158.5717  145.7579 H       1  UNL11111    0.1070
     57 H         118.0067  159.1865  145.8775 H       1  UNL11111    0.1070
@<TRIPOS>BOND
     1     1    23   ar
     2     1    26   ar
     3     2     6    1
     4     2    15    1
     5     3    24    1
     6     3    27    1
     7     4    16   ar
     8     4    20   ar
     9     5    17    1
    10     5    21    1
    11     6     8    1
    12     6     9    1
    13     6    10    1
    14     7     8    1
    15     7    11    1
    16     7    14    1
    17     7    16    1
    18     9    12    1
    19    10    13    1
    20    11    15    1
    21    12    13    1
    22    14    17    1
    23    16    18   ar
    24    18    19   ar
    25    19    22   ar
    26    20    22   ar
    27    21    23    1
    28    23    24   ar
    29    24    25   ar
    30    25    26   ar
    31     5    28    1
    32     8    29    1
    33     8    30    1
    34     9    31    1
    35     9    32    1
    36    10    33    1
    37    10    34    1
    38    11    35    1
    39    11    36    1
    40    12    37    1
    41    12    38    1
    42    13    39    1
    43    13    40    1
    44    14    41    1
    45    14    42    1
    46    15    43    1
    47    15    44    1
    48    17    45    1
    49    17    46    1
    50    18    47    1
    51    19    48    1
    52    20    49    1
    53    21    50    1
    54    21    51    1
    55    22    52    1
    56    25    53    1
    57    26    54    1
    58    27    55    1
    59    27    56    1
    60    27    57    1
@<TRIPOS>MOLECULE
66553195
 57 60 0 0 0
SMALL
GASTEIGER

@<TRIPOS>ATOM
      1 S         116.0381  152.2871  146.7987 S.2     1  UNL11111   -0.1269
      2 O         124.1371  155.0272  145.8119 O.3     1  UNL11111   -0.4593
      3 O         117.3378  149.9133  149.5492 O.3     1  UNL11111   -0.5783
      4 N         121.3744  152.0069  144.3334 N.ar    1  UNL11111   -0.3349
      5 N         119.5479  151.8556  148.0569 N.3     1  UNL11111   -0.3404
      6 C         124.0154  154.1512  146.9378 C.3     1  UNL11111    0.0110
      7 C         121.5654  153.6238  146.1875 C.3     1  UNL11111    0.0128
      8 C         122.5404  153.9703  147.3488 C.3     1  UNL11111   -0.0152
      9 C         124.8123  154.7997  148.0842 C.3     1  UNL11111   -0.0341
     10 C         124.8210  152.8620  146.7316 C.3     1  UNL11111   -0.0341
     11 C         121.8813  154.6424  145.0464 C.3     1  UNL11111   -0.0192
     12 C         126.2781  154.5289  147.7489 C.3     1  UNL11111   -0.0539
     13 C         126.2801  153.3021  146.8411 C.3     1  UNL11111   -0.0539
     14 C         120.0775  153.8890  146.6087 C.3     1  UNL11111   -0.0315
     15 C         123.3561  154.6475  144.6824 C.3     1  UNL11111    0.0064
     16 C         121.6873  152.1888  145.6443 C.ar    1  UNL11111   -0.0010
     17 C         119.5715  153.3084  147.9421 C.3     1  UNL11111   -0.0284
     18 C         122.0547  151.1036  146.4406 C.ar    1  UNL11111   -0.0514
     19 C         122.1238  149.8261  145.8856 C.ar    1  UNL11111   -0.0708
     20 C         121.4483  150.7598  143.8176 C.ar    1  UNL11111   -0.0127
     21 C         118.5793  151.1945  147.1699 C.3     1  UNL11111    0.0161
     22 C         121.8179  149.6472  144.5463 C.ar    1  UNL11111   -0.0571
     23 C         117.1644  151.3221  147.6605 C.ar    1  UNL11111    0.0248
     24 C         116.5814  150.7201  148.7602 C.ar    1  UNL11111    0.0564
     25 C         115.2059  151.0724  148.9000 C.ar    1  UNL11111   -0.0135
     26 C         114.7853  151.9216  147.9000 C.ar    1  UNL11111   -0.0275
     27 C         116.6298  149.2668  150.5977 C.3     1  UNL11111    0.0304
     28 H         119.3061  151.5907  149.0131 H       1  UNL11111    0.1338
     29 H         122.2078  154.9341  147.7632 H       1  UNL11111    0.0529
     30 H         122.4657  153.2570  148.1767 H       1  UNL11111    0.0529
     31 H         124.5678  154.3299  149.0451 H       1  UNL11111    0.0462
     32 H         124.6286  155.8761  148.1704 H       1  UNL11111    0.0462
     33 H         124.6522  152.3734  145.7693 H       1  UNL11111    0.0462
     34 H         124.6075  152.1403  147.5290 H       1  UNL11111    0.0462
     35 H         121.6246  155.6534  145.3929 H       1  UNL11111    0.0502
     36 H         121.2727  154.4625  144.1524 H       1  UNL11111    0.0502
     37 H         126.8665  154.3641  148.6573 H       1  UNL11111    0.0342
     38 H         126.7189  155.3838  147.2234 H       1  UNL11111    0.0342
     39 H         126.6727  153.5710  145.8535 H       1  UNL11111    0.0342
     40 H         126.9109  152.5003  147.2380 H       1  UNL11111    0.0342
     41 H         119.4039  153.5917  145.7946 H       1  UNL11111    0.0446
     42 H         119.9412  154.9764  146.7008 H       1  UNL11111    0.0446
     43 H         123.6976  153.6889  144.2812 H       1  UNL11111    0.0891
     44 H         123.5340  155.3962  143.9032 H       1  UNL11111    0.0891
     45 H         120.2032  153.6934  148.7507 H       1  UNL11111    0.0605
     46 H         118.5749  153.7174  148.1470 H       1  UNL11111    0.0605
     47 H         122.2585  151.2199  147.4989 H       1  UNL11111    0.1002
     48 H         122.4015  148.9786  146.5054 H       1  UNL11111    0.0906
     49 H         121.1899  150.6799  142.7659 H       1  UNL11111    0.1371
     50 H         118.8314  150.1266  147.1498 H       1  UNL11111    0.0805
     51 H         118.6831  151.5293  146.1327 H       1  UNL11111    0.0805
     52 H         121.8570  148.6673  144.0860 H       1  UNL11111    0.0980
     53 H         114.5427  150.7328  149.6842 H       1  UNL11111    0.1153
     54 H         113.7995  152.3437  147.7610 H       1  UNL11111    0.1125
     55 H         117.3353  148.6205  151.1288 H       1  UNL11111    0.1070
     56 H         115.8281  148.6326  150.2043 H       1  UNL11111    0.1070
     57 H         116.2385  149.9948  151.3161 H       1  UNL11111    0.1070
@<TRIPOS>BOND
     1     1    23   ar
     2     1    26   ar
     3     2     6    1
     4     2    15    1
     5     3    24    1
     6     3    27    1
     7     4    16   ar
     8     4    20   ar
     9     5    17    1
    10     5    21    1
    11     6     8    1
    12     6     9    1
    13     6    10    1
    14     7     8    1
    15     7    11    1
    16     7    14    1
    17     7    16    1
    18     9    12    1
    19    10    13    1
    20    11    15    1
    21    12    13    1
    22    14    17    1
    23    16    18   ar
    24    18    19   ar
    25    19    22   ar
    26    20    22   ar
    27    21    23    1
    28    23    24   ar
    29    24    25   ar
    30    25    26   ar
    31     5    28    1
    32     8    29    1
    33     8    30    1
    34     9    31    1
    35     9    32    1
    36    10    33    1
    37    10    34    1
    38    11    35    1
    39    11    36    1
    40    12    37    1
    41    12    38    1
    42    13    39    1
    43    13    40    1
    44    14    41    1
    45    14    42    1
    46    15    43    1
    47    15    44    1
    48    17    45    1
    49    17    46    1
    50    18    47    1
    51    19    48    1
    52    20    49    1
    53    21    50    1
    54    21    51    1
    55    22    52    1
    56    25    53    1
    57    26    54    1
    58    27    55    1
    59    27    56    1
    60    27    57    1
@<TRIPOS>MOLECULE
66553195
 57 60 0 0 0
SMALL
GASTEIGER

@<TRIPOS>ATOM
      1 S         121.9999  152.3262  152.0414 S.2     1  UNL11111   -0.1269
      2 O         124.0347  154.8306  145.3988 O.3     1  UNL11111   -0.4593
      3 O         119.1568  154.9188  152.3534 O.3     1  UNL11111   -0.5783
      4 N         121.2895  151.5905  144.7992 N.ar    1  UNL11111   -0.3349
      5 N         120.2971  153.5025  149.2361 N.3     1  UNL11111   -0.3404
      6 C         124.0371  154.1627  146.6652 C.3     1  UNL11111    0.0110
      7 C         121.5276  153.5433  146.2927 C.3     1  UNL11111    0.0128
      8 C         122.6172  154.0912  147.2590 C.3     1  UNL11111   -0.0152
      9 C         124.9636  154.9742  147.5879 C.3     1  UNL11111   -0.0341
     10 C         124.8007  152.8332  146.5985 C.3     1  UNL11111   -0.0341
     11 C         121.7115  154.3325  144.9581 C.3     1  UNL11111   -0.0192
     12 C         126.3798  154.6045  147.1491 C.3     1  UNL11111   -0.0539
     13 C         126.2662  153.2438  146.4670 C.3     1  UNL11111   -0.0539
     14 C         120.0796  153.8856  146.7883 C.3     1  UNL11111   -0.0315
     15 C         123.1394  154.2717  144.4431 C.3     1  UNL11111    0.0064
     16 C         121.6131  152.0287  146.0433 C.ar    1  UNL11111   -0.0010
     17 C         119.5340  153.1778  148.0369 C.3     1  UNL11111   -0.0284
     18 C         121.9452  151.1240  147.0549 C.ar    1  UNL11111   -0.0514
     19 C         121.9792  149.7587  146.7770 C.ar    1  UNL11111   -0.0708
     20 C         121.3317  150.2621  144.5537 C.ar    1  UNL11111   -0.0127
     21 C         119.7917  152.7689  150.3992 C.3     1  UNL11111    0.0161
     22 C         121.6709  149.3154  145.5004 C.ar    1  UNL11111   -0.0571
     23 C         120.5600  153.1622  151.6260 C.ar    1  UNL11111    0.0248
     24 C         120.2667  154.1574  152.5388 C.ar    1  UNL11111    0.0564
     25 C         121.2384  154.2327  153.5812 C.ar    1  UNL11111   -0.0135
     26 C         122.2333  153.2913  153.4308 C.ar    1  UNL11111   -0.0275
     27 C         118.8837  155.8416  153.3989 C.3     1  UNL11111    0.0304
     28 H         120.2136  154.5006  149.4338 H       1  UNL11111    0.1338
     29 H         122.3263  155.1193  147.5217 H       1  UNL11111    0.0529
     30 H         122.6531  153.5436  148.2049 H       1  UNL11111    0.0529
     31 H         124.8228  154.6844  148.6367 H       1  UNL11111    0.0462
     32 H         124.8026  156.0544  147.5047 H       1  UNL11111    0.0462
     33 H         124.5182  152.1903  145.7618 H       1  UNL11111    0.0462
     34 H         124.6712  152.2654  147.5279 H       1  UNL11111    0.0462
     35 H         121.4678  155.3888  145.1403 H       1  UNL11111    0.0502
     36 H         121.0202  153.9885  144.1795 H       1  UNL11111    0.0502
     37 H         127.0620  154.5745  148.0048 H       1  UNL11111    0.0342
     38 H         126.7720  155.3455  146.4431 H       1  UNL11111    0.0342
     39 H         126.5432  153.3339  145.4101 H       1  UNL11111    0.0342
     40 H         126.9322  152.5020  146.9189 H       1  UNL11111    0.0342
     41 H         119.3747  153.6627  145.9740 H       1  UNL11111    0.0446
     42 H         120.0046  154.9703  146.9501 H       1  UNL11111    0.0446
     43 H         123.4486  153.2583  144.1719 H       1  UNL11111    0.0891
     44 H         123.2213  154.8775  143.5344 H       1  UNL11111    0.0891
     45 H         118.4934  153.4981  148.1759 H       1  UNL11111    0.0605
     46 H         119.5038  152.0958  147.8728 H       1  UNL11111    0.0605
     47 H         122.1623  151.4575  148.0646 H       1  UNL11111    0.1002
     48 H         122.2393  149.0501  147.5581 H       1  UNL11111    0.0906
     49 H         121.0737  149.9721  143.5394 H       1  UNL11111    0.1371
     50 H         119.8822  151.6882  150.2322 H       1  UNL11111    0.0805
     51 H         118.7263  152.9816  150.5523 H       1  UNL11111    0.0805
     52 H         121.6874  148.2610  145.2515 H       1  UNL11111    0.0980
     53 H         121.2292  154.9337  154.4049 H       1  UNL11111    0.1153
     54 H         123.0894  153.1250  154.0700 H       1  UNL11111    0.1125
     55 H         117.9573  156.3672  153.1477 H       1  UNL11111    0.1070
     56 H         119.6787  156.5900  153.4846 H       1  UNL11111    0.1070
     57 H         118.7261  155.3247  154.3517 H       1  UNL11111    0.1070
@<TRIPOS>BOND
     1     1    23   ar
     2     1    26   ar
     3     2     6    1
     4     2    15    1
     5     3    24    1
     6     3    27    1
     7     4    16   ar
     8     4    20   ar
     9     5    17    1
    10     5    21    1
    11     6     8    1
    12     6     9    1
    13     6    10    1
    14     7     8    1
    15     7    11    1
    16     7    14    1
    17     7    16    1
    18     9    12    1
    19    10    13    1
    20    11    15    1
    21    12    13    1
    22    14    17    1
    23    16    18   ar
    24    18    19   ar
    25    19    22   ar
    26    20    22   ar
    27    21    23    1
    28    23    24   ar
    29    24    25   ar
    30    25    26   ar
    31     5    28    1
    32     8    29    1
    33     8    30    1
    34     9    31    1
    35     9    32    1
    36    10    33    1
    37    10    34    1
    38    11    35    1
    39    11    36    1
    40    12    37    1
    41    12    38    1
    42    13    39    1
    43    13    40    1
    44    14    41    1
    45    14    42    1
    46    15    43    1
    47    15    44    1
    48    17    45    1
    49    17    46    1
    50    18    47    1
    51    19    48    1
    52    20    49    1
    53    21    50    1
    54    21    51    1
    55    22    52    1
    56    25    53    1
    57    26    54    1
    58    27    55    1
    59    27    56    1
    60    27    57    1
@<TRIPOS>MOLECULE
66553195
 57 60 0 0 0
SMALL
GASTEIGER

@<TRIPOS>ATOM
      1 S         121.8003  158.5699  146.3928 S.2     1  UNL11111   -0.1269
      2 O         123.9839  154.7538  145.5826 O.3     1  UNL11111   -0.4593
      3 O         120.0334  157.5656  149.6760 O.3     1  UNL11111   -0.5783
      4 N         121.7024  151.2780  146.9637 N.ar    1  UNL11111   -0.3349
      5 N         119.3862  156.1812  146.1597 N.3     1  UNL11111   -0.3404
      6 C         123.7963  154.0501  146.8184 C.3     1  UNL11111    0.0110
      7 C         121.3330  153.5675  146.1081 C.3     1  UNL11111    0.0128
      8 C         122.3110  154.0308  147.2280 C.3     1  UNL11111   -0.0152
      9 C         124.6281  154.7973  147.8766 C.3     1  UNL11111   -0.0341
     10 C         124.5144  152.6953  146.7996 C.3     1  UNL11111   -0.0341
     11 C         121.6918  154.4084  144.8582 C.3     1  UNL11111   -0.0192
     12 C         126.0739  154.3865  147.6049 C.3     1  UNL11111   -0.0539
     13 C         125.9990  153.0492  146.8737 C.3     1  UNL11111   -0.0539
     14 C         119.8339  153.7624  146.5306 C.3     1  UNL11111   -0.0315
     15 C         123.1705  154.2974  144.5079 C.3     1  UNL11111    0.0064
     16 C         121.4517  152.0443  145.8693 C.ar    1  UNL11111   -0.0010
     17 C         119.3980  155.1004  147.1422 C.3     1  UNL11111   -0.0284
     18 C         121.2137  151.4550  144.6256 C.ar    1  UNL11111   -0.0514
     19 C         121.2846  150.0682  144.4958 C.ar    1  UNL11111   -0.0708
     20 C         121.7662  149.9368  146.8119 C.ar    1  UNL11111   -0.0127
     21 C         119.2565  157.5006  146.7924 C.3     1  UNL11111    0.0161
     22 C         121.5710  149.2909  145.6076 C.ar    1  UNL11111   -0.0571
     23 C         120.5470  157.9684  147.4023 C.ar    1  UNL11111    0.0248
     24 C         120.9143  157.9950  148.7348 C.ar    1  UNL11111    0.0564
     25 C         122.2371  158.4986  148.9190 C.ar    1  UNL11111   -0.0135
     26 C         122.8325  158.8394  147.7248 C.ar    1  UNL11111   -0.0275
     27 C         120.5893  157.3879  150.9717 C.3     1  UNL11111    0.0304
     28 H         118.5976  156.0449  145.5302 H       1  UNL11111    0.1338
     29 H         122.0616  155.0686  147.4809 H       1  UNL11111    0.0529
     30 H         122.1705  153.4556  148.1515 H       1  UNL11111    0.0529
     31 H         124.3459  154.4829  148.8891 H       1  UNL11111    0.0462
     32 H         124.5171  155.8849  147.8106 H       1  UNL11111    0.0462
     33 H         124.3212  152.0959  145.9069 H       1  UNL11111    0.0462
     34 H         124.2451  152.1020  147.6816 H       1  UNL11111    0.0462
     35 H         121.5054  155.4661  145.0670 H       1  UNL11111    0.0502
     36 H         121.0727  154.1551  143.9921 H       1  UNL11111    0.0502
     37 H         126.6437  154.3097  148.5366 H       1  UNL11111    0.0342
     38 H         126.5750  155.1302  146.9747 H       1  UNL11111    0.0342
     39 H         126.4170  153.1532  145.8655 H       1  UNL11111    0.0342
     40 H         126.5706  152.2694  147.3869 H       1  UNL11111    0.0342
     41 H         119.5836  153.0012  147.2847 H       1  UNL11111    0.0446
     42 H         119.1849  153.5381  145.6715 H       1  UNL11111    0.0446
     43 H         123.4597  153.2832  144.2180 H       1  UNL11111    0.0891
     44 H         123.3853  154.9409  143.6480 H       1  UNL11111    0.0891
     45 H         118.3800  154.9817  147.5354 H       1  UNL11111    0.0605
     46 H         120.0277  155.3237  148.0068 H       1  UNL11111    0.0605
     47 H         120.9617  152.0433  143.7514 H       1  UNL11111    0.1002
     48 H         121.1082  149.6005  143.5312 H       1  UNL11111    0.0906
     49 H         121.9843  149.3798  147.7183 H       1  UNL11111    0.1371
     50 H         118.4447  157.4998  147.5300 H       1  UNL11111    0.0805
     51 H         118.9539  158.2197  146.0203 H       1  UNL11111    0.0805
     52 H         121.6315  148.2112  145.5396 H       1  UNL11111    0.0980
     53 H         122.7442  158.6115  149.8675 H       1  UNL11111    0.1153
     54 H         123.8260  159.2363  147.5687 H       1  UNL11111    0.1125
     55 H         119.8123  156.9619  151.6138 H       1  UNL11111    0.1070
     56 H         120.8915  158.3468  151.4055 H       1  UNL11111    0.1070
     57 H         121.4283  156.6836  150.9519 H       1  UNL11111    0.1070
@<TRIPOS>BOND
     1     1    23   ar
     2     1    26   ar
     3     2     6    1
     4     2    15    1
     5     3    24    1
     6     3    27    1
     7     4    16   ar
     8     4    20   ar
     9     5    17    1
    10     5    21    1
    11     6     8    1
    12     6     9    1
    13     6    10    1
    14     7     8    1
    15     7    11    1
    16     7    14    1
    17     7    16    1
    18     9    12    1
    19    10    13    1
    20    11    15    1
    21    12    13    1
    22    14    17    1
    23    16    18   ar
    24    18    19   ar
    25    19    22   ar
    26    20    22   ar
    27    21    23    1
    28    23    24   ar
    29    24    25   ar
    30    25    26   ar
    31     5    28    1
    32     8    29    1
    33     8    30    1
    34     9    31    1
    35     9    32    1
    36    10    33    1
    37    10    34    1
    38    11    35    1
    39    11    36    1
    40    12    37    1
    41    12    38    1
    42    13    39    1
    43    13    40    1
    44    14    41    1
    45    14    42    1
    46    15    43    1
    47    15    44    1
    48    17    45    1
    49    17    46    1
    50    18    47    1
    51    19    48    1
    52    20    49    1
    53    21    50    1
    54    21    51    1
    55    22    52    1
    56    25    53    1
    57    26    54    1
    58    27    55    1
    59    27    56    1
    60    27    57    1
@<TRIPOS>MOLECULE
66553195
 57 60 0 0 0
SMALL
GASTEIGER

@<TRIPOS>ATOM
      1 S         120.7135  148.6025  149.1333 S.2     1  UNL11111   -0.1269
      2 O         123.8329  155.1568  145.5962 O.3     1  UNL11111   -0.4593
      3 O         117.5023  149.5725  151.0403 O.3     1  UNL11111   -0.5783
      4 N         122.3617  151.2864  146.6225 N.ar    1  UNL11111   -0.3349
      5 N         119.7630  151.6404  148.3818 N.3     1  UNL11111   -0.3404
      6 C         123.9463  154.2868  146.7295 C.3     1  UNL11111    0.0110
      7 C         121.4560  153.5659  146.3301 C.3     1  UNL11111    0.0128
      8 C         122.5641  153.9910  147.3420 C.3     1  UNL11111   -0.0152
      9 C         124.8332  155.0150  147.7564 C.3     1  UNL11111   -0.0341
     10 C         124.8256  153.0699  146.4145 C.3     1  UNL11111   -0.0341
     11 C         121.5324  154.5789  145.1515 C.3     1  UNL11111   -0.0192
     12 C         126.2601  154.8590  147.2331 C.3     1  UNL11111   -0.0539
     13 C         126.2406  153.6372  146.3195 C.3     1  UNL11111   -0.0539
     14 C         120.0416  153.7149  146.9890 C.3     1  UNL11111   -0.0315
     15 C         122.9404  154.6945  144.5900 C.3     1  UNL11111    0.0064
     16 C         121.6224  152.1173  145.8455 C.ar    1  UNL11111   -0.0010
     17 C         119.8266  153.0984  148.3827 C.3     1  UNL11111   -0.0284
     18 C         120.9792  151.6405  144.7004 C.ar    1  UNL11111   -0.0514
     19 C         121.1435  150.3096  144.3199 C.ar    1  UNL11111   -0.0708
     20 C         122.5179  150.0028  146.2239 C.ar    1  UNL11111   -0.0127
     21 C         119.6972  151.1316  149.7573 C.3     1  UNL11111    0.0161
     22 C         121.9352  149.4729  145.0904 C.ar    1  UNL11111   -0.0571
     23 C         119.5200  149.6403  149.8031 C.ar    1  UNL11111    0.0248
     24 C         118.5100  148.9161  150.4088 C.ar    1  UNL11111    0.0564
     25 C         118.6848  147.5080  150.2542 C.ar    1  UNL11111   -0.0135
     26 C         119.8439  147.2027  149.5761 C.ar    1  UNL11111   -0.0275
     27 C         116.7768  148.7828  151.9724 C.3     1  UNL11111    0.0304
     28 H         120.6099  151.2563  147.9493 H       1  UNL11111    0.1338
     29 H         122.2203  154.9233  147.8148 H       1  UNL11111    0.0529
     30 H         122.6699  153.2642  148.1569 H       1  UNL11111    0.0529
     31 H         124.7569  154.5414  148.7432 H       1  UNL11111    0.0462
     32 H         124.5742  156.0740  147.8625 H       1  UNL11111    0.0462
     33 H         124.5687  152.5561  145.4854 H       1  UNL11111    0.0462
     34 H         124.7891  152.3430  147.2349 H       1  UNL11111    0.0462
     35 H         121.2460  155.5724  145.5248 H       1  UNL11111    0.0502
     36 H         120.8271  154.3441  144.3486 H       1  UNL11111    0.0502
     37 H         126.9695  154.7377  148.0582 H       1  UNL11111    0.0342
     38 H         126.5646  155.7464  146.6667 H       1  UNL11111    0.0342
     39 H         126.4611  153.9400  145.2892 H       1  UNL11111    0.0342
     40 H         126.9903  152.8951  146.6115 H       1  UNL11111    0.0342
     41 H         119.2652  153.3408  146.3076 H       1  UNL11111    0.0446
     42 H         119.8311  154.7880  147.1032 H       1  UNL11111    0.0446
     43 H         123.2962  153.7562  144.1544 H       1  UNL11111    0.0891
     44 H         122.9489  155.4386  143.7866 H       1  UNL11111    0.0891
     45 H         120.5977  153.4579  149.0724 H       1  UNL11111    0.0605
     46 H         118.8699  153.4808  148.7614 H       1  UNL11111    0.0605
     47 H         120.3319  152.2747  144.1052 H       1  UNL11111    0.1002
     48 H         120.6458  149.9297  143.4323 H       1  UNL11111    0.0906
     49 H         123.1391  149.3907  146.8713 H       1  UNL11111    0.1371
     50 H         118.8614  151.6106  150.2817 H       1  UNL11111    0.0805
     51 H         120.6121  151.3961  150.3031 H       1  UNL11111    0.0805
     52 H         122.0814  148.4329  144.8240 H       1  UNL11111    0.0980
     53 H         118.0083  146.7455  150.6151 H       1  UNL11111    0.1153
     54 H         120.2253  146.2229  149.3249 H       1  UNL11111    0.1125
     55 H         116.0781  149.4419  152.4967 H       1  UNL11111    0.1070
     56 H         117.4438  148.3407  152.7209 H       1  UNL11111    0.1070
     57 H         116.1897  148.0102  151.4657 H       1  UNL11111    0.1070
@<TRIPOS>BOND
     1     1    23   ar
     2     1    26   ar
     3     2     6    1
     4     2    15    1
     5     3    24    1
     6     3    27    1
     7     4    16   ar
     8     4    20   ar
     9     5    17    1
    10     5    21    1
    11     6     8    1
    12     6     9    1
    13     6    10    1
    14     7     8    1
    15     7    11    1
    16     7    14    1
    17     7    16    1
    18     9    12    1
    19    10    13    1
    20    11    15    1
    21    12    13    1
    22    14    17    1
    23    16    18   ar
    24    18    19   ar
    25    19    22   ar
    26    20    22   ar
    27    21    23    1
    28    23    24   ar
    29    24    25   ar
    30    25    26   ar
    31     5    28    1
    32     8    29    1
    33     8    30    1
    34     9    31    1
    35     9    32    1
    36    10    33    1
    37    10    34    1
    38    11    35    1
    39    11    36    1
    40    12    37    1
    41    12    38    1
    42    13    39    1
    43    13    40    1
    44    14    41    1
    45    14    42    1
    46    15    43    1
    47    15    44    1
    48    17    45    1
    49    17    46    1
    50    18    47    1
    51    19    48    1
    52    20    49    1
    53    21    50    1
    54    21    51    1
    55    22    52    1
    56    25    53    1
    57    26    54    1
    58    27    55    1
    59    27    56    1
    60    27    57    1
@<TRIPOS>MOLECULE
66553195
 57 60 0 0 0
SMALL
GASTEIGER

@<TRIPOS>ATOM
      1 S         121.6527  150.4970  150.6072 S.2     1  UNL11111   -0.1269
      2 O         123.7070  154.9852  145.7613 O.3     1  UNL11111   -0.4593
      3 O         118.9419  152.7707  152.1526 O.3     1  UNL11111   -0.5783
      4 N         122.0705  151.1911  146.8662 N.ar    1  UNL11111   -0.3349
      5 N         119.4468  151.6502  148.3782 N.3     1  UNL11111   -0.3404
      6 C         123.7316  154.1583  146.9325 C.3     1  UNL11111    0.0110
      7 C         121.2540  153.4805  146.4165 C.3     1  UNL11111    0.0128
      8 C         122.3089  153.9236  147.4761 C.3     1  UNL11111   -0.0152
      9 C         124.5830  154.9038  147.9765 C.3     1  UNL11111   -0.0341
     10 C         124.5923  152.9072  146.7141 C.3     1  UNL11111   -0.0341
     11 C         121.4224  154.4442  145.2065 C.3     1  UNL11111   -0.0192
     12 C         126.0296  154.6951  147.5309 C.3     1  UNL11111   -0.0539
     13 C         126.0256  153.4338  146.6720 C.3     1  UNL11111   -0.0539
     14 C         119.8050  153.6880  146.9800 C.3     1  UNL11111   -0.0315
     15 C         122.8619  154.5057  144.7231 C.3     1  UNL11111    0.0064
     16 C         121.4189  152.0090  146.0001 C.ar    1  UNL11111   -0.0010
     17 C         119.4744  153.1082  148.3680 C.3     1  UNL11111   -0.0284
     18 C         120.8501  151.4993  144.8306 C.ar    1  UNL11111   -0.0514
     19 C         120.9975  150.1470  144.5240 C.ar    1  UNL11111   -0.0708
     20 C         122.2059  149.8842  146.5440 C.ar    1  UNL11111   -0.0127
     21 C         119.0872  151.0987  149.6887 C.3     1  UNL11111    0.0161
     22 C         121.6944  149.3213  145.3925 C.ar    1  UNL11111   -0.0571
     23 C         120.1425  151.3046  150.7386 C.ar    1  UNL11111    0.0248
     24 C         120.0782  152.0768  151.8833 C.ar    1  UNL11111    0.0564
     25 C         121.2901  152.0244  152.6356 C.ar    1  UNL11111   -0.0135
     26 C         122.2296  151.2055  152.0490 C.ar    1  UNL11111   -0.0275
     27 C         118.9430  153.4641  153.3926 C.3     1  UNL11111    0.0304
     28 H         120.3763  151.2929  148.1285 H       1  UNL11111    0.1338
     29 H         121.9625  154.8838  147.8872 H       1  UNL11111    0.0529
     30 H         122.3461  153.2319  148.3265 H       1  UNL11111    0.0529
     31 H         124.4455  154.4694  148.9747 H       1  UNL11111    0.0462
     32 H         124.3460  155.9718  148.0302 H       1  UNL11111    0.0462
     33 H         124.3706  152.3617  145.7939 H       1  UNL11111    0.0462
     34 H         124.4925  152.2162  147.5600 H       1  UNL11111    0.0462
     35 H         121.1396  155.4577  145.5244 H       1  UNL11111    0.0502
     36 H         120.7576  154.1938  144.3741 H       1  UNL11111    0.0502
     37 H         126.6968  154.5973  148.3934 H       1  UNL11111    0.0342
     38 H         126.3801  155.5492  146.9404 H       1  UNL11111    0.0342
     39 H         126.3096  153.6839  145.6430 H       1  UNL11111    0.0342
     40 H         126.7378  152.6870  147.0369 H       1  UNL11111    0.0342
     41 H         119.0663  153.3179  146.2554 H       1  UNL11111    0.0446
     42 H         119.6186  154.7688  147.0557 H       1  UNL11111    0.0446
     43 H         123.2184  153.5438  144.3433 H       1  UNL11111    0.0891
     44 H         122.9346  155.2182  143.8946 H       1  UNL11111    0.0891
     45 H         120.1783  153.5046  149.1066 H       1  UNL11111    0.0605
     46 H         118.4810  153.4806  148.6485 H       1  UNL11111    0.0605
     47 H         120.2716  152.1238  144.1596 H       1  UNL11111    0.1002
     48 H         120.5579  149.7420  143.6169 H       1  UNL11111    0.0906
     49 H         122.7496  149.2844  147.2681 H       1  UNL11111    0.1371
     50 H         118.9192  150.0212  149.5667 H       1  UNL11111    0.0805
     51 H         118.1234  151.5086  150.0136 H       1  UNL11111    0.0805
     52 H         121.8230  148.2657  145.1845 H       1  UNL11111    0.0980
     53 H         121.4836  152.5521  153.5597 H       1  UNL11111    0.1153
     54 H         123.2280  150.9852  152.4004 H       1  UNL11111    0.1125
     55 H         117.9684  153.9487  153.5063 H       1  UNL11111    0.1070
     56 H         119.7085  154.2471  153.4067 H       1  UNL11111    0.1070
     57 H         119.0715  152.7737  154.2334 H       1  UNL11111    0.1070
@<TRIPOS>BOND
     1     1    23   ar
     2     1    26   ar
     3     2     6    1
     4     2    15    1
     5     3    24    1
     6     3    27    1
     7     4    16   ar
     8     4    20   ar
     9     5    17    1
    10     5    21    1
    11     6     8    1
    12     6     9    1
    13     6    10    1
    14     7     8    1
    15     7    11    1
    16     7    14    1
    17     7    16    1
    18     9    12    1
    19    10    13    1
    20    11    15    1
    21    12    13    1
    22    14    17    1
    23    16    18   ar
    24    18    19   ar
    25    19    22   ar
    26    20    22   ar
    27    21    23    1
    28    23    24   ar
    29    24    25   ar
    30    25    26   ar
    31     5    28    1
    32     8    29    1
    33     8    30    1
    34     9    31    1
    35     9    32    1
    36    10    33    1
    37    10    34    1
    38    11    35    1
    39    11    36    1
    40    12    37    1
    41    12    38    1
    42    13    39    1
    43    13    40    1
    44    14    41    1
    45    14    42    1
    46    15    43    1
    47    15    44    1
    48    17    45    1
    49    17    46    1
    50    18    47    1
    51    19    48    1
    52    20    49    1
    53    21    50    1
    54    21    51    1
    55    22    52    1
    56    25    53    1
    57    26    54    1
    58    27    55    1
    59    27    56    1
    60    27    57    1
@<TRIPOS>MOLECULE
66553195
 57 60 0 0 0
SMALL
GASTEIGER

@<TRIPOS>ATOM
      1 S         116.7243  153.1161  142.3664 S.2     1  UNL11111   -0.1269
      2 O         123.7981  154.9609  146.0205 O.3     1  UNL11111   -0.4593
      3 O         115.4301  155.4983  145.1129 O.3     1  UNL11111   -0.5783
      4 N         121.7466  151.0773  147.1366 N.ar    1  UNL11111   -0.3349
      5 N         117.4758  153.1643  146.0742 N.3     1  UNL11111   -0.3404
      6 C         123.6584  154.1315  147.1818 C.3     1  UNL11111    0.0110
      7 C         121.3482  153.3426  146.2751 C.3     1  UNL11111    0.0128
      8 C         122.1738  153.8823  147.4854 C.3     1  UNL11111   -0.0152
      9 C         124.3262  154.8848  148.3449 C.3     1  UNL11111   -0.0341
     10 C         124.5469  152.8835  147.1026 C.3     1  UNL11111   -0.0341
     11 C         121.6546  154.2883  145.0861 C.3     1  UNL11111   -0.0192
     12 C         125.8258  154.6849  148.1330 C.3     1  UNL11111   -0.0539
     13 C         125.9661  153.4123  147.3022 C.3     1  UNL11111   -0.0539
     14 C         119.8351  153.4468  146.6649 C.3     1  UNL11111   -0.0315
     15 C         123.1509  154.4648  144.8560 C.3     1  UNL11111    0.0064
     16 C         121.6676  151.8598  146.0293 C.ar    1  UNL11111   -0.0010
     17 C         118.8435  153.0042  145.5785 C.3     1  UNL11111   -0.0284
     18 C         121.8107  151.3077  144.7550 C.ar    1  UNL11111   -0.0514
     19 C         122.0623  149.9423  144.6206 C.ar    1  UNL11111   -0.0708
     20 C         121.9874  149.7571  146.9809 C.ar    1  UNL11111   -0.0127
     21 C         116.4671  152.7068  145.1132 C.3     1  UNL11111    0.0161
     22 C         122.1547  149.1486  145.7535 C.ar    1  UNL11111   -0.0571
     23 C         116.3033  153.6386  143.9457 C.ar    1  UNL11111    0.0248
     24 C         115.8126  154.9313  143.9392 C.ar    1  UNL11111    0.0564
     25 C         115.7938  155.4925  142.6274 C.ar    1  UNL11111   -0.0135
     26 C         116.2640  154.6101  141.6799 C.ar    1  UNL11111   -0.0275
     27 C         114.8913  156.8080  144.9985 C.3     1  UNL11111    0.0304
     28 H         117.2885  154.1444  146.2892 H       1  UNL11111    0.1338
     29 H         121.7383  154.8513  147.7727 H       1  UNL11111    0.0529
     30 H         122.0663  153.2392  148.3681 H       1  UNL11111    0.0529
     31 H         124.0363  154.4506  149.3099 H       1  UNL11111    0.0462
     32 H         124.0764  155.9511  148.3579 H       1  UNL11111    0.0462
     33 H         124.4837  152.3409  146.1569 H       1  UNL11111    0.0462
     34 H         124.3065  152.1864  147.9147 H       1  UNL11111    0.0462
     35 H         121.2362  155.2783  145.3158 H       1  UNL11111    0.0502
     36 H         121.1757  153.9649  144.1568 H       1  UNL11111    0.0502
     37 H         126.3525  154.6064  149.0896 H       1  UNL11111    0.0342
     38 H         126.2559  155.5347  147.5908 H       1  UNL11111    0.0342
     39 H         126.4245  153.6489  146.3349 H       1  UNL11111    0.0342
     40 H         126.6030  152.6705  147.7945 H       1  UNL11111    0.0342
     41 H         119.6097  154.4884  146.9347 H       1  UNL11111    0.0446
     42 H         119.6512  152.8542  147.5726 H       1  UNL11111    0.0446
     43 H         123.6329  153.5430  144.5186 H       1  UNL11111    0.0891
     44 H         123.3064  155.2036  144.0625 H       1  UNL11111    0.0891
     45 H         118.9919  153.6072  144.6779 H       1  UNL11111    0.0605
     46 H         119.0122  151.9534  145.3227 H       1  UNL11111    0.0605
     47 H         121.7219  151.9036  143.8547 H       1  UNL11111    0.1002
     48 H         122.1768  149.5025  143.6338 H       1  UNL11111    0.0906
     49 H         122.0408  149.1859  147.9031 H       1  UNL11111    0.1371
     50 H         115.5061  152.6498  145.6395 H       1  UNL11111    0.0805
     51 H         116.6870  151.6811  144.7922 H       1  UNL11111    0.0805
     52 H         122.3443  148.0841  145.6821 H       1  UNL11111    0.0980
     53 H         115.4560  156.4877  142.3706 H       1  UNL11111    0.1153
     54 H         116.3571  154.7707  140.6146 H       1  UNL11111    0.1125
     55 H         114.6053  157.1412  146.0009 H       1  UNL11111    0.1070
     56 H         113.9904  156.8133  144.3756 H       1  UNL11111    0.1070
     57 H         115.6387  157.5103  144.6143 H       1  UNL11111    0.1070
@<TRIPOS>BOND
     1     1    23   ar
     2     1    26   ar
     3     2     6    1
     4     2    15    1
     5     3    24    1
     6     3    27    1
     7     4    16   ar
     8     4    20   ar
     9     5    17    1
    10     5    21    1
    11     6     8    1
    12     6     9    1
    13     6    10    1
    14     7     8    1
    15     7    11    1
    16     7    14    1
    17     7    16    1
    18     9    12    1
    19    10    13    1
    20    11    15    1
    21    12    13    1
    22    14    17    1
    23    16    18   ar
    24    18    19   ar
    25    19    22   ar
    26    20    22   ar
    27    21    23    1
    28    23    24   ar
    29    24    25   ar
    30    25    26   ar
    31     5    28    1
    32     8    29    1
    33     8    30    1
    34     9    31    1
    35     9    32    1
    36    10    33    1
    37    10    34    1
    38    11    35    1
    39    11    36    1
    40    12    37    1
    41    12    38    1
    42    13    39    1
    43    13    40    1
    44    14    41    1
    45    14    42    1
    46    15    43    1
    47    15    44    1
    48    17    45    1
    49    17    46    1
    50    18    47    1
    51    19    48    1
    52    20    49    1
    53    21    50    1
    54    21    51    1
    55    22    52    1
    56    25    53    1
    57    26    54    1
    58    27    55    1
    59    27    56    1
    60    27    57    1
@<TRIPOS>MOLECULE
66553195
 57 60 0 0 0
SMALL
GASTEIGER

@<TRIPOS>ATOM
      1 S         116.6468  150.8584  149.6408 S.2     1  UNL11111   -0.1269
      2 O         123.9592  154.8634  145.6451 O.3     1  UNL11111   -0.4593
      3 O         116.6481  151.7282  145.8816 O.3     1  UNL11111   -0.5783
      4 N         121.5317  151.4211  144.6781 N.ar    1  UNL11111   -0.3349
      5 N         119.6045  152.0004  148.5330 N.3     1  UNL11111   -0.3404
      6 C         123.8563  154.1928  146.9061 C.3     1  UNL11111    0.0110
      7 C         121.4810  153.3571  146.2085 C.3     1  UNL11111    0.0128
      8 C         122.3822  153.9874  147.3071 C.3     1  UNL11111   -0.0152
      9 C         124.5697  155.0852  147.9376 C.3     1  UNL11111   -0.0341
     10 C         124.7488  152.9457  146.9501 C.3     1  UNL11111   -0.0341
     11 C         121.7659  154.1717  144.9060 C.3     1  UNL11111   -0.0192
     12 C         126.0612  154.8562  147.6965 C.3     1  UNL11111   -0.0539
     13 C         126.1714  153.4989  147.0079 C.3     1  UNL11111   -0.0539
     14 C         119.9586  153.5610  146.5277 C.3     1  UNL11111   -0.0315
     15 C         123.2494  154.2322  144.5829 C.3     1  UNL11111    0.0064
     16 C         121.7358  151.8611  145.9486 C.ar    1  UNL11111   -0.0010
     17 C         119.4631  153.3398  147.9680 C.3     1  UNL11111   -0.0284
     18 C         122.1156  150.9701  146.9526 C.ar    1  UNL11111   -0.0514
     19 C         122.3109  149.6231  146.6480 C.ar    1  UNL11111   -0.0708
     20 C         121.7277  150.1122  144.4061 C.ar    1  UNL11111   -0.0127
     21 C         118.7929  150.9799  147.8535 C.3     1  UNL11111    0.0161
     22 C         122.1170  149.1822  145.3487 C.ar    1  UNL11111   -0.0571
     23 C         117.3187  151.1369  148.0846 C.ar    1  UNL11111    0.0248
     24 C         116.3364  151.4535  147.1704 C.ar    1  UNL11111    0.0564
     25 C         115.0395  151.5225  147.7507 C.ar    1  UNL11111   -0.0135
     26 C         115.0655  151.2132  149.0929 C.ar    1  UNL11111   -0.0275
     27 C         115.9744  150.8638  144.9725 C.3     1  UNL11111    0.0304
     28 H         119.3037  152.0242  149.5080 H       1  UNL11111    0.1338
     29 H         121.9705  154.9856  147.5201 H       1  UNL11111    0.0529
     30 H         122.3240  153.4386  148.2532 H       1  UNL11111    0.0529
     31 H         124.3178  154.7782  148.9604 H       1  UNL11111    0.0462
     32 H         124.3184  156.1453  147.8250 H       1  UNL11111    0.0462
     33 H         124.6438  152.2840  146.0873 H       1  UNL11111    0.0462
     34 H         124.5564  152.3634  147.8591 H       1  UNL11111    0.0462
     35 H         121.4220  155.2053  145.0533 H       1  UNL11111    0.0502
     36 H         121.2071  153.7836  144.0463 H       1  UNL11111    0.0502
     37 H         126.6198  154.8805  148.6377 H       1  UNL11111    0.0342
     38 H         126.4739  155.6390  147.0500 H       1  UNL11111    0.0342
     39 H         126.5715  153.6273  145.9953 H       1  UNL11111    0.0342
     40 H         126.8437  152.8208  147.5430 H       1  UNL11111    0.0342
     41 H         119.3495  152.9706  145.8309 H       1  UNL11111    0.0446
     42 H         119.7021  154.6066  146.3033 H       1  UNL11111    0.0446
     43 H         123.6763  153.2493  144.3641 H       1  UNL11111    0.0891
     44 H         123.3995  154.8460  143.6884 H       1  UNL11111    0.0891
     45 H         119.9991  154.0308  148.6289 H       1  UNL11111    0.0605
     46 H         118.4150  153.6591  148.0257 H       1  UNL11111    0.0605
     47 H         122.2405  151.2938  147.9798 H       1  UNL11111    0.1002
     48 H         122.6035  148.9262  147.4279 H       1  UNL11111    0.0906
     49 H         121.5548  149.8253  143.3732 H       1  UNL11111    0.1371
     50 H         119.1024  150.0003  148.2398 H       1  UNL11111    0.0805
     51 H         119.0151  150.9444  146.7823 H       1  UNL11111    0.0805
     52 H         122.2588  148.1424  145.0795 H       1  UNL11111    0.0980
     53 H         114.1357  151.7925  147.2210 H       1  UNL11111    0.1153
     54 H         114.2327  151.1838  149.7818 H       1  UNL11111    0.1125
     55 H         116.3563  151.0696  143.9680 H       1  UNL11111    0.1070
     56 H         114.8957  151.0501  144.9688 H       1  UNL11111    0.1070
     57 H         116.1814  149.8127  145.2041 H       1  UNL11111    0.1070
@<TRIPOS>BOND
     1     1    23   ar
     2     1    26   ar
     3     2     6    1
     4     2    15    1
     5     3    24    1
     6     3    27    1
     7     4    16   ar
     8     4    20   ar
     9     5    17    1
    10     5    21    1
    11     6     8    1
    12     6     9    1
    13     6    10    1
    14     7     8    1
    15     7    11    1
    16     7    14    1
    17     7    16    1
    18     9    12    1
    19    10    13    1
    20    11    15    1
    21    12    13    1
    22    14    17    1
    23    16    18   ar
    24    18    19   ar
    25    19    22   ar
    26    20    22   ar
    27    21    23    1
    28    23    24   ar
    29    24    25   ar
    30    25    26   ar
    31     5    28    1
    32     8    29    1
    33     8    30    1
    34     9    31    1
    35     9    32    1
    36    10    33    1
    37    10    34    1
    38    11    35    1
    39    11    36    1
    40    12    37    1
    41    12    38    1
    42    13    39    1
    43    13    40    1
    44    14    41    1
    45    14    42    1
    46    15    43    1
    47    15    44    1
    48    17    45    1
    49    17    46    1
    50    18    47    1
    51    19    48    1
    52    20    49    1
    53    21    50    1
    54    21    51    1
    55    22    52    1
    56    25    53    1
    57    26    54    1
    58    27    55    1
    59    27    56    1
    60    27    57    1
@<TRIPOS>MOLECULE
66553195
 57 60 0 0 0
SMALL
GASTEIGER

@<TRIPOS>ATOM
      1 S         115.6671  155.2127  144.1948 S.2     1  UNL11111   -0.1269
      2 O         124.1577  154.7263  145.4861 O.3     1  UNL11111   -0.4593
      3 O         117.7275  157.8760  146.0825 O.3     1  UNL11111   -0.5783
      4 N         121.6793  151.5445  145.0469 N.ar    1  UNL11111   -0.3349
      5 N         118.7116  154.1665  144.5057 N.3     1  UNL11111   -0.3404
      6 C         123.9854  154.1565  146.7867 C.3     1  UNL11111    0.0110
      7 C         121.4767  153.7224  146.2150 C.3     1  UNL11111    0.0128
      8 C         122.5210  154.2802  147.2309 C.3     1  UNL11111   -0.0152
      9 C         124.9021  154.9432  147.7397 C.3     1  UNL11111   -0.0341
     10 C         124.6015  152.7552  146.8927 C.3     1  UNL11111   -0.0341
     11 C         121.8464  154.3115  144.8280 C.3     1  UNL11111   -0.0192
     12 C         126.3046  154.3998  147.4733 C.3     1  UNL11111   -0.0539
     13 C         126.1092  153.0020  146.8930 C.3     1  UNL11111   -0.0539
     14 C         120.0678  154.2466  146.6647 C.3     1  UNL11111   -0.0315
     15 C         123.3226  154.1546  144.4830 C.3     1  UNL11111    0.0064
     16 C         121.4750  152.1841  146.2246 C.ar    1  UNL11111   -0.0010
     17 C         118.8296  153.7466  145.8989 C.3     1  UNL11111   -0.0284
     18 C         121.2482  151.4636  147.4014 C.ar    1  UNL11111   -0.0514
     19 C         121.2440  150.0703  147.3657 C.ar    1  UNL11111   -0.0708
     20 C         121.6677  150.1938  145.0363 C.ar    1  UNL11111   -0.0127
     21 C         118.4380  155.5939  144.3105 C.3     1  UNL11111    0.0161
     22 C         121.4586  149.4190  146.1603 C.ar    1  UNL11111   -0.0571
     23 C         117.0706  156.0277  144.7612 C.ar    1  UNL11111    0.0248
     24 C         116.7393  157.0939  145.5762 C.ar    1  UNL11111    0.0564
     25 C         115.3307  157.2025  145.7776 C.ar    1  UNL11111   -0.0135
     26 C         114.6328  156.2365  145.0869 C.ar    1  UNL11111   -0.0275
     27 C         117.2838  159.0996  146.6535 C.3     1  UNL11111    0.0304
     28 H         117.9569  153.6410  144.0647 H       1  UNL11111    0.1338
     29 H         122.3139  155.3541  147.3530 H       1  UNL11111    0.0529
     30 H         122.3904  153.8402  148.2270 H       1  UNL11111    0.0529
     31 H         124.6339  154.7526  148.7864 H       1  UNL11111    0.0462
     32 H         124.8663  156.0240  147.5664 H       1  UNL11111    0.0462
     33 H         124.3391  152.0789  146.0769 H       1  UNL11111    0.0462
     34 H         124.3138  152.2777  147.8375 H       1  UNL11111    0.0462
     35 H         121.6268  155.3876  144.8384 H       1  UNL11111    0.0502
     36 H         121.2515  153.8718  144.0212 H       1  UNL11111    0.0502
     37 H         126.9008  154.3795  148.3913 H       1  UNL11111    0.0342
     38 H         126.8338  155.0336  146.7526 H       1  UNL11111    0.0342
     39 H         126.5011  152.9671  145.8697 H       1  UNL11111    0.0342
     40 H         126.6388  152.2399  147.4734 H       1  UNL11111    0.0342
     41 H         120.0717  155.3443  146.6654 H       1  UNL11111    0.0446
     42 H         119.9130  153.9718  147.7179 H       1  UNL11111    0.0446
     43 H         123.6073  153.1150  144.3020 H       1  UNL11111    0.0891
     44 H         123.5291  154.6935  143.5518 H       1  UNL11111    0.0891
     45 H         118.8206  152.6511  145.9151 H       1  UNL11111    0.0605
     46 H         117.9331  154.0432  146.4571 H       1  UNL11111    0.0605
     47 H         121.0705  151.9679  148.3453 H       1  UNL11111    0.1002
     48 H         121.0707  149.4999  148.2736 H       1  UNL11111    0.0906
     49 H         121.8372  149.7394  144.0646 H       1  UNL11111    0.1371
     50 H         118.5210  155.8030  143.2363 H       1  UNL11111    0.0805
     51 H         119.2181  156.2008  144.7811 H       1  UNL11111    0.0805
     52 H         121.4600  148.3373  146.0965 H       1  UNL11111    0.0980
     53 H         114.8359  157.9438  146.3906 H       1  UNL11111    0.1153
     54 H         113.5623  156.0877  145.0566 H       1  UNL11111    0.1125
     55 H         118.1689  159.6830  146.9252 H       1  UNL11111    0.1070
     56 H         116.7078  158.9210  147.5673 H       1  UNL11111    0.1070
     57 H         116.7048  159.6890  145.9338 H       1  UNL11111    0.1070
@<TRIPOS>BOND
     1     1    23   ar
     2     1    26   ar
     3     2     6    1
     4     2    15    1
     5     3    24    1
     6     3    27    1
     7     4    16   ar
     8     4    20   ar
     9     5    17    1
    10     5    21    1
    11     6     8    1
    12     6     9    1
    13     6    10    1
    14     7     8    1
    15     7    11    1
    16     7    14    1
    17     7    16    1
    18     9    12    1
    19    10    13    1
    20    11    15    1
    21    12    13    1
    22    14    17    1
    23    16    18   ar
    24    18    19   ar
    25    19    22   ar
    26    20    22   ar
    27    21    23    1
    28    23    24   ar
    29    24    25   ar
    30    25    26   ar
    31     5    28    1
    32     8    29    1
    33     8    30    1
    34     9    31    1
    35     9    32    1
    36    10    33    1
    37    10    34    1
    38    11    35    1
    39    11    36    1
    40    12    37    1
    41    12    38    1
    42    13    39    1
    43    13    40    1
    44    14    41    1
    45    14    42    1
    46    15    43    1
    47    15    44    1
    48    17    45    1
    49    17    46    1
    50    18    47    1
    51    19    48    1
    52    20    49    1
    53    21    50    1
    54    21    51    1
    55    22    52    1
    56    25    53    1
    57    26    54    1
    58    27    55    1
    59    27    56    1
    60    27    57    1
@<TRIPOS>MOLECULE
66553195
 57 60 0 0 0
SMALL
GASTEIGER

@<TRIPOS>ATOM
      1 S         121.0959  159.0615  144.0453 S.2     1  UNL11111   -0.1269
      2 O         124.3259  154.5744  145.7701 O.3     1  UNL11111   -0.4593
      3 O         117.2564  158.8956  144.4240 O.3     1  UNL11111   -0.5783
      4 N         121.5663  151.4646  147.1887 N.ar    1  UNL11111   -0.3349
      5 N         119.7039  156.4247  145.7318 N.3     1  UNL11111   -0.3404
      6 C         124.0281  153.9265  147.0148 C.3     1  UNL11111    0.0110
      7 C         121.5361  153.7562  146.2634 C.3     1  UNL11111    0.0128
      8 C         122.5461  154.1122  147.3961 C.3     1  UNL11111   -0.0152
      9 C         124.9353  154.5780  148.0739 C.3     1  UNL11111   -0.0341
     10 C         124.5611  152.4885  147.0337 C.3     1  UNL11111   -0.0341
     11 C         122.0273  154.5132  145.0059 C.3     1  UNL11111   -0.0192
     12 C         126.3186  153.9776  147.8308 C.3     1  UNL11111   -0.0539
     13 C         126.0785  152.6457  147.1254 C.3     1  UNL11111   -0.0539
     14 C         120.0765  154.1604  146.6723 C.3     1  UNL11111   -0.0315
     15 C         123.4826  154.1982  144.6868 C.3     1  UNL11111    0.0064
     16 C         121.4551  152.2251  146.0679 C.ar    1  UNL11111   -0.0010
     17 C         119.7628  155.6360  146.9573 C.3     1  UNL11111   -0.0284
     18 C         121.1858  151.6369  144.8301 C.ar    1  UNL11111   -0.0514
     19 C         121.0811  150.2494  144.7356 C.ar    1  UNL11111   -0.0708
     20 C         121.4616  150.1225  147.0708 C.ar    1  UNL11111   -0.0127
     21 C         119.5510  157.8522  146.0216 C.3     1  UNL11111    0.0161
     22 C         121.2267  149.4733  145.8753 C.ar    1  UNL11111   -0.0571
     23 C         119.5849  158.6438  144.7475 C.ar    1  UNL11111    0.0248
     24 C         118.5270  159.1331  144.0053 C.ar    1  UNL11111    0.0564
     25 C         118.9671  159.8472  142.8498 C.ar    1  UNL11111   -0.0135
     26 C         120.3409  159.8817  142.7530 C.ar    1  UNL11111   -0.0275
     27 C         116.2439  159.4957  143.6274 C.3     1  UNL11111    0.0304
     28 H         118.9130  156.1277  145.1609 H       1  UNL11111    0.1338
     29 H         122.4231  155.1771  147.6312 H       1  UNL11111    0.0529
     30 H         122.3177  153.5762  148.3258 H       1  UNL11111    0.0529
     31 H         124.6010  154.3204  149.0866 H       1  UNL11111    0.0462
     32 H         124.9676  155.6695  147.9888 H       1  UNL11111    0.0462
     33 H         124.3031  151.9003  146.1500 H       1  UNL11111    0.0462
     34 H         124.2034  151.9547  147.9223 H       1  UNL11111    0.0462
     35 H         121.9904  155.5910  145.1987 H       1  UNL11111    0.0502
     36 H         121.3927  154.3297  144.1334 H       1  UNL11111    0.0502
     37 H         126.8635  153.8482  148.7714 H       1  UNL11111    0.0342
     38 H         126.9186  154.6362  147.1923 H       1  UNL11111    0.0342
     39 H         126.5204  152.6717  146.1225 H       1  UNL11111    0.0342
     40 H         126.5352  151.8093  147.6638 H       1  UNL11111    0.0342
     41 H         119.8105  153.6054  147.5843 H       1  UNL11111    0.0446
     42 H         119.3732  153.8040  145.9051 H       1  UNL11111    0.0446
     43 H         123.6417  153.1480  144.4269 H       1  UNL11111    0.0891
     44 H         123.7957  154.7864  143.8176 H       1  UNL11111    0.0891
     45 H         118.7861  155.6875  147.4551 H       1  UNL11111    0.0605
     46 H         120.4935  156.0502  147.6579 H       1  UNL11111    0.0605
     47 H         121.0438  152.2287  143.9336 H       1  UNL11111    0.1002
     48 H         120.8797  149.7813  143.7761 H       1  UNL11111    0.0906
     49 H         121.5751  149.5676  147.9974 H       1  UNL11111    0.1371
     50 H         120.3558  158.1959  146.6839 H       1  UNL11111    0.0805
     51 H         118.6056  158.0313  146.5481 H       1  UNL11111    0.0805
     52 H         121.1504  148.3932  145.8347 H       1  UNL11111    0.0980
     53 H         118.3277  160.3175  142.1152 H       1  UNL11111    0.1153
     54 H         120.9400  160.3500  141.9845 H       1  UNL11111    0.1125
     55 H         115.2761  159.2533  144.0769 H       1  UNL11111    0.1070
     56 H         116.2497  159.0906  142.6098 H       1  UNL11111    0.1070
     57 H         116.3425  160.5866  143.6165 H       1  UNL11111    0.1070
@<TRIPOS>BOND
     1     1    23   ar
     2     1    26   ar
     3     2     6    1
     4     2    15    1
     5     3    24    1
     6     3    27    1
     7     4    16   ar
     8     4    20   ar
     9     5    17    1
    10     5    21    1
    11     6     8    1
    12     6     9    1
    13     6    10    1
    14     7     8    1
    15     7    11    1
    16     7    14    1
    17     7    16    1
    18     9    12    1
    19    10    13    1
    20    11    15    1
    21    12    13    1
    22    14    17    1
    23    16    18   ar
    24    18    19   ar
    25    19    22   ar
    26    20    22   ar
    27    21    23    1
    28    23    24   ar
    29    24    25   ar
    30    25    26   ar
    31     5    28    1
    32     8    29    1
    33     8    30    1
    34     9    31    1
    35     9    32    1
    36    10    33    1
    37    10    34    1
    38    11    35    1
    39    11    36    1
    40    12    37    1
    41    12    38    1
    42    13    39    1
    43    13    40    1
    44    14    41    1
    45    14    42    1
    46    15    43    1
    47    15    44    1
    48    17    45    1
    49    17    46    1
    50    18    47    1
    51    19    48    1
    52    20    49    1
    53    21    50    1
    54    21    51    1
    55    22    52    1
    56    25    53    1
    57    26    54    1
    58    27    55    1
    59    27    56    1
    60    27    57    1
@<TRIPOS>MOLECULE
66553195
 57 60 0 0 0
SMALL
GASTEIGER

@<TRIPOS>ATOM
      1 S         116.7185  158.0534  145.7604 S.2     1  UNL11111   -0.1269
      2 O         123.9551  154.6283  145.5349 O.3     1  UNL11111   -0.4593
      3 O         120.1387  158.4831  147.4987 O.3     1  UNL11111   -0.5783
      4 N         121.4890  151.4228  144.8798 N.ar    1  UNL11111   -0.3349
      5 N         118.1362  155.3279  147.4325 N.3     1  UNL11111   -0.3404
      6 C         123.8697  153.9706  146.8043 C.3     1  UNL11111    0.0110
      7 C         121.3699  153.4516  146.3076 C.3     1  UNL11111    0.0128
      8 C         122.4201  153.9853  147.3213 C.3     1  UNL11111   -0.0152
      9 C         124.7861  154.7492  147.7646 C.3     1  UNL11111   -0.0341
     10 C         124.5670  152.6046  146.7917 C.3     1  UNL11111   -0.0341
     11 C         121.6378  154.1810  144.9611 C.3     1  UNL11111   -0.0192
     12 C         126.2019  154.3090  147.3983 C.3     1  UNL11111   -0.0539
     13 C         126.0573  152.9385  146.7423 C.3     1  UNL11111   -0.0539
     14 C         119.9020  153.7361  146.7820 C.3     1  UNL11111   -0.0315
     15 C         123.0970  154.0889  144.5315 C.3     1  UNL11111    0.0064
     16 C         121.4601  151.9184  146.1419 C.ar    1  UNL11111   -0.0010
     17 C         119.5639  155.1954  147.1180 C.3     1  UNL11111   -0.0284
     18 C         121.4603  151.0639  147.2489 C.ar    1  UNL11111   -0.0514
     19 C         121.5197  149.6853  147.0544 C.ar    1  UNL11111   -0.0708
     20 C         121.5443  150.0823  144.7169 C.ar    1  UNL11111   -0.0127
     21 C         117.8066  156.6744  147.9273 C.3     1  UNL11111    0.0161
     22 C         121.5655  149.1811  145.7635 C.ar    1  UNL11111   -0.0571
     23 C         117.9729  157.7481  146.8910 C.ar    1  UNL11111    0.0248
     24 C         119.0534  158.5869  146.6879 C.ar    1  UNL11111    0.0564
     25 C         118.8420  159.4853  145.6002 C.ar    1  UNL11111   -0.0135
     26 C         117.6134  159.2974  145.0064 C.ar    1  UNL11111   -0.0275
     27 C         121.3220  159.0754  146.9785 C.3     1  UNL11111    0.0304
     28 H         117.8859  154.6556  148.1548 H       1  UNL11111    0.1338
     29 H         122.1865  155.0383  147.5242 H       1  UNL11111    0.0529
     30 H         122.3508  153.4740  148.2880 H       1  UNL11111    0.0529
     31 H         124.5809  154.4776  148.8076 H       1  UNL11111    0.0462
     32 H         124.6804  155.8348  147.6640 H       1  UNL11111    0.0462
     33 H         124.3034  151.9674  145.9450 H       1  UNL11111    0.0462
     34 H         124.3525  152.0535  147.7155 H       1  UNL11111    0.0462
     35 H         121.4162  155.2482  145.0743 H       1  UNL11111    0.0502
     36 H         120.9844  153.8111  144.1620 H       1  UNL11111    0.0502
     37 H         126.8454  154.2713  148.2831 H       1  UNL11111    0.0342
     38 H         126.6552  155.0151  146.6931 H       1  UNL11111    0.0342
     39 H         126.4031  152.9862  145.7031 H       1  UNL11111    0.0342
     40 H         126.6544  152.1759  147.2522 H       1  UNL11111    0.0342
     41 H         119.6812  153.1339  147.6745 H       1  UNL11111    0.0446
     42 H         119.2098  153.3830  146.0034 H       1  UNL11111    0.0446
     43 H         123.4062  153.0726  144.2748 H       1  UNL11111    0.0891
     44 H         123.2427  154.6922  143.6289 H       1  UNL11111    0.0891
     45 H         120.1540  155.5188  147.9815 H       1  UNL11111    0.0605
     46 H         119.8057  155.8331  146.2660 H       1  UNL11111    0.0605
     47 H         121.4057  151.4507  148.2608 H       1  UNL11111    0.1002
     48 H         121.5233  149.0118  147.9066 H       1  UNL11111    0.0906
     49 H         121.5702  149.7438  143.6852 H       1  UNL11111    0.1371
     50 H         118.4024  156.9054  148.8193 H       1  UNL11111    0.0805
     51 H         116.7631  156.6620  148.2665 H       1  UNL11111    0.0805
     52 H         121.6090  148.1145  145.5768 H       1  UNL11111    0.0980
     53 H         119.5405  160.2368  145.2576 H       1  UNL11111    0.1153
     54 H         117.1954  159.8325  144.1651 H       1  UNL11111    0.1125
     55 H         121.2373  160.1666  146.9549 H       1  UNL11111    0.1070
     56 H         121.5641  158.6783  145.9864 H       1  UNL11111    0.1070
     57 H         122.1471  158.8190  147.6502 H       1  UNL11111    0.1070
@<TRIPOS>BOND
     1     1    23   ar
     2     1    26   ar
     3     2     6    1
     4     2    15    1
     5     3    24    1
     6     3    27    1
     7     4    16   ar
     8     4    20   ar
     9     5    17    1
    10     5    21    1
    11     6     8    1
    12     6     9    1
    13     6    10    1
    14     7     8    1
    15     7    11    1
    16     7    14    1
    17     7    16    1
    18     9    12    1
    19    10    13    1
    20    11    15    1
    21    12    13    1
    22    14    17    1
    23    16    18   ar
    24    18    19   ar
    25    19    22   ar
    26    20    22   ar
    27    21    23    1
    28    23    24   ar
    29    24    25   ar
    30    25    26   ar
    31     5    28    1
    32     8    29    1
    33     8    30    1
    34     9    31    1
    35     9    32    1
    36    10    33    1
    37    10    34    1
    38    11    35    1
    39    11    36    1
    40    12    37    1
    41    12    38    1
    42    13    39    1
    43    13    40    1
    44    14    41    1
    45    14    42    1
    46    15    43    1
    47    15    44    1
    48    17    45    1
    49    17    46    1
    50    18    47    1
    51    19    48    1
    52    20    49    1
    53    21    50    1
    54    21    51    1
    55    22    52    1
    56    25    53    1
    57    26    54    1
    58    27    55    1
    59    27    56    1
    60    27    57    1
@<TRIPOS>MOLECULE
66553195
 57 60 0 0 0
SMALL
GASTEIGER

@<TRIPOS>ATOM
      1 S         115.6032  150.7981  146.1472 S.2     1  UNL11111   -0.1269
      2 O         123.9864  154.7171  145.5716 O.3     1  UNL11111   -0.4593
      3 O         115.9953  153.3365  143.2661 O.3     1  UNL11111   -0.5783
      4 N         121.8444  151.2347  147.5199 N.ar    1  UNL11111   -0.3349
      5 N         118.7864  151.6782  145.4163 N.3     1  UNL11111   -0.3404
      6 C         123.8439  154.1507  146.8810 C.3     1  UNL11111    0.0110
      7 C         121.4875  153.2715  146.1862 C.3     1  UNL11111    0.0128
      8 C         122.3582  154.0226  147.2468 C.3     1  UNL11111   -0.0152
      9 C         124.5546  155.1066  147.8550 C.3     1  UNL11111   -0.0341
     10 C         124.6943  152.8858  147.0522 C.3     1  UNL11111   -0.0341
     11 C         121.8097  153.9302  144.8205 C.3     1  UNL11111   -0.0192
     12 C         126.0438  154.8159  147.6776 C.3     1  UNL11111   -0.0539
     13 C         126.1310  153.4011  147.1119 C.3     1  UNL11111   -0.0539
     14 C         119.9890  153.5330  146.5630 C.3     1  UNL11111   -0.0315
     15 C         123.3061  154.0068  144.5445 C.3     1  UNL11111    0.0064
     16 C         121.7623  151.7614  146.2679 C.ar    1  UNL11111   -0.0010
     17 C         118.9077  153.1246  145.5479 C.3     1  UNL11111   -0.0284
     18 C         121.8958  150.9465  145.1419 C.ar    1  UNL11111   -0.0514
     19 C         122.1363  149.5822  145.3012 C.ar    1  UNL11111   -0.0708
     20 C         122.0755  149.9093  147.6466 C.ar    1  UNL11111   -0.0127
     21 C         117.7674  151.2653  144.4487 C.3     1  UNL11111    0.0161
     22 C         122.2316  149.0499  146.5773 C.ar    1  UNL11111   -0.0571
     23 C         116.3685  151.6283  144.8547 C.ar    1  UNL11111    0.0248
     24 C         115.5419  152.5910  144.3074 C.ar    1  UNL11111    0.0564
     25 C         114.2768  152.6499  144.9644 C.ar    1  UNL11111   -0.0135
     26 C         114.1815  151.7309  145.9868 C.ar    1  UNL11111   -0.0275
     27 C         115.1172  154.3677  142.8390 C.3     1  UNL11111    0.0304
     28 H         118.5754  151.2641  146.3247 H       1  UNL11111    0.1338
     29 H         121.9644  155.0470  147.3292 H       1  UNL11111    0.0529
     30 H         122.2451  153.5854  148.2470 H       1  UNL11111    0.0529
     31 H         124.2662  154.8932  148.8920 H       1  UNL11111    0.0462
     32 H         124.3387  156.1601  147.6478 H       1  UNL11111    0.0462
     33 H         124.5955  152.1593  146.2429 H       1  UNL11111    0.0462
     34 H         124.4533  152.3830  147.9966 H       1  UNL11111    0.0462
     35 H         121.4246  154.9596  144.8359 H       1  UNL11111    0.0502
     36 H         121.3086  153.4302  143.9858 H       1  UNL11111    0.0502
     37 H         126.5783  154.9066  148.6287 H       1  UNL11111    0.0342
     38 H         126.4964  155.5278  146.9780 H       1  UNL11111    0.0342
     39 H         126.5670  153.4301  146.1064 H       1  UNL11111    0.0342
     40 H         126.7640  152.7526  147.7257 H       1  UNL11111    0.0342
     41 H         119.8579  154.6130  146.7220 H       1  UNL11111    0.0446
     42 H         119.7612  153.0687  147.5329 H       1  UNL11111    0.0446
     43 H         123.7562  153.0204  144.4034 H       1  UNL11111    0.0891
     44 H         123.4696  154.5574  143.6118 H       1  UNL11111    0.0891
     45 H         117.9617  153.5479  145.9058 H       1  UNL11111    0.0605
     46 H         119.1115  153.5833  144.5747 H       1  UNL11111    0.0605
     47 H         121.7917  151.3368  144.1370 H       1  UNL11111    0.1002
     48 H         122.2349  148.9415  144.4298 H       1  UNL11111    0.0906
     49 H         122.1329  149.5471  148.6686 H       1  UNL11111    0.1371
     50 H         117.8333  150.1763  144.3310 H       1  UNL11111    0.0805
     51 H         118.0080  151.6783  143.4618 H       1  UNL11111    0.0805
     52 H         122.4128  147.9934  146.7338 H       1  UNL11111    0.0980
     53 H         113.4666  153.3221  144.7167 H       1  UNL11111    0.1153
     54 H         113.3422  151.5601  146.6467 H       1  UNL11111    0.1125
     55 H         115.6055  154.9042  142.0197 H       1  UNL11111    0.1070
     56 H         114.9304  155.0866  143.6440 H       1  UNL11111    0.1070
     57 H         114.1786  153.9549  142.4545 H       1  UNL11111    0.1070
@<TRIPOS>BOND
     1     1    23   ar
     2     1    26   ar
     3     2     6    1
     4     2    15    1
     5     3    24    1
     6     3    27    1
     7     4    16   ar
     8     4    20   ar
     9     5    17    1
    10     5    21    1
    11     6     8    1
    12     6     9    1
    13     6    10    1
    14     7     8    1
    15     7    11    1
    16     7    14    1
    17     7    16    1
    18     9    12    1
    19    10    13    1
    20    11    15    1
    21    12    13    1
    22    14    17    1
    23    16    18   ar
    24    18    19   ar
    25    19    22   ar
    26    20    22   ar
    27    21    23    1
    28    23    24   ar
    29    24    25   ar
    30    25    26   ar
    31     5    28    1
    32     8    29    1
    33     8    30    1
    34     9    31    1
    35     9    32    1
    36    10    33    1
    37    10    34    1
    38    11    35    1
    39    11    36    1
    40    12    37    1
    41    12    38    1
    42    13    39    1
    43    13    40    1
    44    14    41    1
    45    14    42    1
    46    15    43    1
    47    15    44    1
    48    17    45    1
    49    17    46    1
    50    18    47    1
    51    19    48    1
    52    20    49    1
    53    21    50    1
    54    21    51    1
    55    22    52    1
    56    25    53    1
    57    26    54    1
    58    27    55    1
    59    27    56    1
    60    27    57    1
@<TRIPOS>MOLECULE
66553195
 57 60 0 0 0
SMALL
GASTEIGER

@<TRIPOS>ATOM
      1 S         121.6371  151.5063  150.8625 S.2     1  UNL11111   -0.1269
      2 O         124.2082  154.8481  145.5913 O.3     1  UNL11111   -0.4593
      3 O         117.7873  151.2328  150.7434 O.3     1  UNL11111   -0.5783
      4 N         122.0552  151.3644  146.8163 N.ar    1  UNL11111   -0.3349
      5 N         120.2461  154.0615  149.2645 N.3     1  UNL11111   -0.3404
      6 C         124.1034  154.0848  146.8014 C.3     1  UNL11111    0.0110
      7 C         121.5619  153.7260  146.2708 C.3     1  UNL11111    0.0128
      8 C         122.6552  154.0654  147.3262 C.3     1  UNL11111   -0.0152
      9 C         125.0301  154.7626  147.8275 C.3     1  UNL11111   -0.0341
     10 C         124.7930  152.7215  146.6611 C.3     1  UNL11111   -0.0341
     11 C         121.8781  154.5975  145.0219 C.3     1  UNL11111   -0.0192
     12 C         126.4427  154.3426  147.4249 C.3     1  UNL11111   -0.0539
     13 C         126.2844  153.0515  146.6269 C.3     1  UNL11111   -0.0539
     14 C         120.1407  154.1499  146.7806 C.3     1  UNL11111   -0.0315
     15 C         123.3176  154.4355  144.5635 C.3     1  UNL11111    0.0064
     16 C         121.5098  152.2265  145.9258 C.ar    1  UNL11111   -0.0010
     17 C         119.6183  153.4923  148.0712 C.3     1  UNL11111   -0.0284
     18 C         120.8519  151.7504  144.7884 C.ar    1  UNL11111   -0.0514
     19 C         120.7871  150.3775  144.5518 C.ar    1  UNL11111   -0.0708
     20 C         121.9759  150.0387  146.5719 C.ar    1  UNL11111   -0.0127
     21 C         119.7077  153.4960  150.5082 C.3     1  UNL11111    0.0161
     22 C         121.3619  149.5009  145.4590 C.ar    1  UNL11111   -0.0571
     23 C         120.0115  152.0377  150.7011 C.ar    1  UNL11111    0.0248
     24 C         119.1219  150.9853  150.8134 C.ar    1  UNL11111    0.0564
     25 C         119.7868  149.7338  150.9845 C.ar    1  UNL11111   -0.0135
     26 C         121.1564  149.8762  151.0217 C.ar    1  UNL11111   -0.0275
     27 C         116.9577  150.1186  151.0413 C.3     1  UNL11111    0.0304
     28 H         120.0944  155.0676  149.2791 H       1  UNL11111    0.1338
     29 H         122.4392  155.0800  147.6928 H       1  UNL11111    0.0529
     30 H         122.5950  153.4070  148.2000 H       1  UNL11111    0.0529
     31 H         124.8202  154.4009  148.8420 H       1  UNL11111    0.0462
     32 H         124.9363  155.8539  147.8251 H       1  UNL11111    0.0462
     33 H         124.5148  152.1657  145.7627 H       1  UNL11111    0.0462
     34 H         124.5882  152.0920  147.5356 H       1  UNL11111    0.0462
     35 H         121.7316  155.6539  145.2882 H       1  UNL11111    0.0502
     36 H         121.1978  154.3993  144.1879 H       1  UNL11111    0.0502
     37 H         127.0771  154.2009  148.3058 H       1  UNL11111    0.0342
     38 H         126.9131  155.1125  146.8026 H       1  UNL11111    0.0342
     39 H         126.6160  153.2101  145.5941 H       1  UNL11111    0.0342
     40 H         126.8848  152.2364  147.0431 H       1  UNL11111    0.0342
     41 H         119.4061  153.9381  145.9906 H       1  UNL11111    0.0446
     42 H         120.1112  155.2410  146.9107 H       1  UNL11111    0.0446
     43 H         123.5414  153.4149  144.2393 H       1  UNL11111    0.0891
     44 H         123.4975  155.0868  143.7016 H       1  UNL11111    0.0891
     45 H         118.5373  153.6747  148.1218 H       1  UNL11111    0.0605
     46 H         119.7574  152.4086  148.0206 H       1  UNL11111    0.0605
     47 H         120.3690  152.4219  144.0877 H       1  UNL11111    0.1002
     48 H         120.2804  149.9983  143.6690 H       1  UNL11111    0.0906
     49 H         122.4347  149.4048  147.3248 H       1  UNL11111    0.1371
     50 H         118.6280  153.6813  150.5605 H       1  UNL11111    0.0805
     51 H         120.1452  154.0502  151.3483 H       1  UNL11111    0.0805
     52 H         121.3252  148.4287  145.3083 H       1  UNL11111    0.0980
     53 H         119.3056  148.7700  151.0770 H       1  UNL11111    0.1153
     54 H         121.9009  149.1018  151.1405 H       1  UNL11111    0.1125
     55 H         115.9178  150.4587  151.0145 H       1  UNL11111    0.1070
     56 H         117.1556  149.7332  152.0475 H       1  UNL11111    0.1070
     57 H         117.0702  149.3303  150.2896 H       1  UNL11111    0.1070
@<TRIPOS>BOND
     1     1    23   ar
     2     1    26   ar
     3     2     6    1
     4     2    15    1
     5     3    24    1
     6     3    27    1
     7     4    16   ar
     8     4    20   ar
     9     5    17    1
    10     5    21    1
    11     6     8    1
    12     6     9    1
    13     6    10    1
    14     7     8    1
    15     7    11    1
    16     7    14    1
    17     7    16    1
    18     9    12    1
    19    10    13    1
    20    11    15    1
    21    12    13    1
    22    14    17    1
    23    16    18   ar
    24    18    19   ar
    25    19    22   ar
    26    20    22   ar
    27    21    23    1
    28    23    24   ar
    29    24    25   ar
    30    25    26   ar
    31     5    28    1
    32     8    29    1
    33     8    30    1
    34     9    31    1
    35     9    32    1
    36    10    33    1
    37    10    34    1
    38    11    35    1
    39    11    36    1
    40    12    37    1
    41    12    38    1
    42    13    39    1
    43    13    40    1
    44    14    41    1
    45    14    42    1
    46    15    43    1
    47    15    44    1
    48    17    45    1
    49    17    46    1
    50    18    47    1
    51    19    48    1
    52    20    49    1
    53    21    50    1
    54    21    51    1
    55    22    52    1
    56    25    53    1
    57    26    54    1
    58    27    55    1
    59    27    56    1
    60    27    57    1
@<TRIPOS>MOLECULE
66553195
 57 60 0 0 0
SMALL
GASTEIGER

@<TRIPOS>ATOM
      1 S         117.1879  148.9201  145.2058 S.2     1  UNL11111   -0.1269
      2 O         123.9011  155.1272  145.9135 O.3     1  UNL11111   -0.4593
      3 O         118.5710  149.1767  148.8014 O.3     1  UNL11111   -0.5783
      4 N         121.8075  151.1788  147.1464 N.ar    1  UNL11111   -0.3349
      5 N         118.6727  151.7558  145.7153 N.3     1  UNL11111   -0.3404
      6 C         123.8772  154.2596  147.0539 C.3     1  UNL11111    0.0110
      7 C         121.5017  153.4679  146.3390 C.3     1  UNL11111    0.0128
      8 C         122.4287  153.9888  147.4828 C.3     1  UNL11111   -0.0152
      9 C         124.6454  154.9817  148.1736 C.3     1  UNL11111   -0.0341
     10 C         124.7607  153.0214  146.8540 C.3     1  UNL11111   -0.0341
     11 C         121.6983  154.4303  145.1397 C.3     1  UNL11111   -0.0192
     12 C         126.1187  154.8070  147.8110 C.3     1  UNL11111   -0.0539
     13 C         126.1904  153.5526  146.9447 C.3     1  UNL11111   -0.0539
     14 C         120.0227  153.5763  146.8643 C.3     1  UNL11111   -0.0315
     15 C         123.1660  154.6543  144.7928 C.3     1  UNL11111    0.0064
     16 C         121.8119  151.9934  146.0588 C.ar    1  UNL11111   -0.0010
     17 C         118.8860  153.1894  145.8979 C.3     1  UNL11111   -0.0284
     18 C         121.9876  151.4681  144.7777 C.ar    1  UNL11111   -0.0514
     19 C         122.1750  150.0950  144.6172 C.ar    1  UNL11111   -0.0708
     20 C         121.9844  149.8518  146.9652 C.ar    1  UNL11111   -0.0127
     21 C         117.7886  151.1836  146.7366 C.3     1  UNL11111    0.0161
     22 C         122.1722  149.2676  145.7297 C.ar    1  UNL11111   -0.0571
     23 C         117.7602  149.6813  146.6368 C.ar    1  UNL11111    0.0248
     24 C         118.1250  148.7497  147.5914 C.ar    1  UNL11111    0.0564
     25 C         117.9749  147.4096  147.1227 C.ar    1  UNL11111   -0.0135
     26 C         117.4803  147.3623  145.8382 C.ar    1  UNL11111   -0.0275
     27 C         118.7749  148.1502  149.7616 C.3     1  UNL11111    0.0304
     28 H         119.5578  151.2545  145.7866 H       1  UNL11111    0.1338
     29 H         122.0140  154.9463  147.8321 H       1  UNL11111    0.0529
     30 H         122.4073  153.3224  148.3546 H       1  UNL11111    0.0529
     31 H         124.4534  154.5116  149.1461 H       1  UNL11111    0.0462
     32 H         124.3886  156.0439  148.2471 H       1  UNL11111    0.0462
     33 H         124.6181  152.5103  145.8997 H       1  UNL11111    0.0462
     34 H         124.5941  152.2948  147.6588 H       1  UNL11111    0.0462
     35 H         121.2746  155.4077  145.4099 H       1  UNL11111    0.0502
     36 H         121.1575  154.0999  144.2472 H       1  UNL11111    0.0502
     37 H         126.7398  154.7190  148.7081 H       1  UNL11111    0.0342
     38 H         126.4813  155.6727  147.2449 H       1  UNL11111    0.0342
     39 H         126.5657  153.8108  145.9475 H       1  UNL11111    0.0342
     40 H         126.8678  152.8030  147.3659 H       1  UNL11111    0.0342
     41 H         119.8425  154.6229  147.1491 H       1  UNL11111    0.0446
     42 H         119.9145  153.0062  147.7969 H       1  UNL11111    0.0446
     43 H         123.6410  153.7596  144.3822 H       1  UNL11111    0.0891
     44 H         123.2354  155.4228  144.0152 H       1  UNL11111    0.0891
     45 H         117.9547  153.6593  146.2403 H       1  UNL11111    0.0605
     46 H         119.0783  153.6270  144.9136 H       1  UNL11111    0.0605
     47 H         121.9537  152.0868  143.8891 H       1  UNL11111    0.1002
     48 H         122.3023  149.6746  143.6233 H       1  UNL11111    0.0906
     49 H         121.9590  149.2545  147.8716 H       1  UNL11111    0.1371
     50 H         116.7700  151.5700  146.6087 H       1  UNL11111    0.0805
     51 H         118.1240  151.4758  147.7382 H       1  UNL11111    0.0805
     52 H         122.3005  148.1959  145.6345 H       1  UNL11111    0.0980
     53 H         118.2090  146.5144  147.6824 H       1  UNL11111    0.1153
     54 H         117.2687  146.4863  145.2411 H       1  UNL11111    0.1125
     55 H         119.0687  148.6248  150.7028 H       1  UNL11111    0.1070
     56 H         119.5872  147.4819  149.4570 H       1  UNL11111    0.1070
     57 H         117.8526  147.5883  149.9459 H       1  UNL11111    0.1070
@<TRIPOS>BOND
     1     1    23   ar
     2     1    26   ar
     3     2     6    1
     4     2    15    1
     5     3    24    1
     6     3    27    1
     7     4    16   ar
     8     4    20   ar
     9     5    17    1
    10     5    21    1
    11     6     8    1
    12     6     9    1
    13     6    10    1
    14     7     8    1
    15     7    11    1
    16     7    14    1
    17     7    16    1
    18     9    12    1
    19    10    13    1
    20    11    15    1
    21    12    13    1
    22    14    17    1
    23    16    18   ar
    24    18    19   ar
    25    19    22   ar
    26    20    22   ar
    27    21    23    1
    28    23    24   ar
    29    24    25   ar
    30    25    26   ar
    31     5    28    1
    32     8    29    1
    33     8    30    1
    34     9    31    1
    35     9    32    1
    36    10    33    1
    37    10    34    1
    38    11    35    1
    39    11    36    1
    40    12    37    1
    41    12    38    1
    42    13    39    1
    43    13    40    1
    44    14    41    1
    45    14    42    1
    46    15    43    1
    47    15    44    1
    48    17    45    1
    49    17    46    1
    50    18    47    1
    51    19    48    1
    52    20    49    1
    53    21    50    1
    54    21    51    1
    55    22    52    1
    56    25    53    1
    57    26    54    1
    58    27    55    1
    59    27    56    1
    60    27    57    1
@<TRIPOS>MOLECULE
66553195
 57 60 0 0 0
SMALL
GASTEIGER

@<TRIPOS>ATOM
      1 S         118.9031  155.5284  151.1430 S.2     1  UNL11111   -0.1269
      2 O         124.0742  154.6944  145.6274 O.3     1  UNL11111   -0.4593
      3 O         117.9752  151.8736  151.9598 O.3     1  UNL11111   -0.5783
      4 N         121.1991  151.6140  144.8402 N.ar    1  UNL11111   -0.3349
      5 N         118.1852  154.1291  148.3540 N.3     1  UNL11111   -0.3404
      6 C         123.9404  154.0449  146.8960 C.3     1  UNL11111    0.0110
      7 C         121.4405  153.5672  146.3279 C.3     1  UNL11111    0.0128
      8 C         122.4769  154.0623  147.3767 C.3     1  UNL11111   -0.0152
      9 C         124.8371  154.8156  147.8807 C.3     1  UNL11111   -0.0341
     10 C         124.6303  152.6746  146.8996 C.3     1  UNL11111   -0.0341
     11 C         121.7685  154.3249  145.0049 C.3     1  UNL11111   -0.0192
     12 C         126.2598  154.3639  147.5538 C.3     1  UNL11111   -0.0539
     13 C         126.1224  153.0029  146.8763 C.3     1  UNL11111   -0.0539
     14 C         119.9940  154.0050  146.7283 C.3     1  UNL11111   -0.0315
     15 C         123.2268  154.1770  144.6061 C.3     1  UNL11111    0.0064
     16 C         121.4485  152.0466  146.1023 C.ar    1  UNL11111   -0.0010
     17 C         119.4466  153.4462  148.0492 C.3     1  UNL11111   -0.0284
     18 C         121.6470  151.1348  147.1417 C.ar    1  UNL11111   -0.0514
     19 C         121.6237  149.7666  146.8735 C.ar    1  UNL11111   -0.0708
     20 C         121.1824  150.2834  144.6041 C.ar    1  UNL11111   -0.0127
     21 C         117.5467  153.6262  149.5752 C.3     1  UNL11111    0.0161
     22 C         121.3911  149.3286  145.5791 C.ar    1  UNL11111   -0.0571
     23 C         118.2697  153.9556  150.8521 C.ar    1  UNL11111    0.0248
     24 C         118.4454  153.1466  151.9552 C.ar    1  UNL11111    0.0564
     25 C         119.1855  153.7756  152.9965 C.ar    1  UNL11111   -0.0135
     26 C         119.5009  155.0792  152.6796 C.ar    1  UNL11111   -0.0275
     27 C         117.2008  151.5877  153.1210 C.3     1  UNL11111    0.0304
     28 H         117.5399  153.9922  147.5772 H       1  UNL11111    0.1338
     29 H         122.2271  155.1095  147.6045 H       1  UNL11111    0.0529
     30 H         122.3912  153.5303  148.3298 H       1  UNL11111    0.0529
     31 H         124.6011  154.5462  148.9177 H       1  UNL11111    0.0462
     32 H         124.7430  155.9019  147.7772 H       1  UNL11111    0.0462
     33 H         124.3763  152.0379  146.0491 H       1  UNL11111    0.0462
     34 H         124.3989  152.1270  147.8212 H       1  UNL11111    0.0462
     35 H         121.5740  155.3962  145.1559 H       1  UNL11111    0.0502
     36 H         121.1195  154.0098  144.1792 H       1  UNL11111    0.0502
     37 H         126.8729  154.3075  148.4590 H       1  UNL11111    0.0342
     38 H         126.7442  155.0736  146.8735 H       1  UNL11111    0.0342
     39 H         126.4826  153.0649  145.8427 H       1  UNL11111    0.0342
     40 H         126.7105  152.2315  147.3832 H       1  UNL11111    0.0342
     41 H         119.2983  153.7322  145.9214 H       1  UNL11111    0.0446
     42 H         119.9710  155.1031  146.7869 H       1  UNL11111    0.0446
     43 H         123.4975  153.1445  144.3680 H       1  UNL11111    0.0891
     44 H         123.4157  154.7669  143.7030 H       1  UNL11111    0.0891
     45 H         119.2676  152.3700  147.9580 H       1  UNL11111    0.0605
     46 H         120.1689  153.6122  148.8529 H       1  UNL11111    0.0605
     47 H         121.8129  151.4598  148.1627 H       1  UNL11111    0.1002
     48 H         121.7828  149.0501  147.6746 H       1  UNL11111    0.0906
     49 H         120.9886  149.9998  143.5738 H       1  UNL11111    0.1371
     50 H         117.3898  152.5440  149.4874 H       1  UNL11111    0.0805
     51 H         116.5465  154.0728  149.6399 H       1  UNL11111    0.0805
     52 H         121.3671  148.2725  145.3373 H       1  UNL11111    0.0980
     53 H         119.4756  153.3090  153.9272 H       1  UNL11111    0.1153
     54 H         120.0474  155.7933  153.2789 H       1  UNL11111    0.1125
     55 H         116.7424  150.6037  152.9843 H       1  UNL11111    0.1070
     56 H         116.3949  152.3201  153.2471 H       1  UNL11111    0.1070
     57 H         117.8262  151.5457  154.0183 H       1  UNL11111    0.1070
@<TRIPOS>BOND
     1     1    23   ar
     2     1    26   ar
     3     2     6    1
     4     2    15    1
     5     3    24    1
     6     3    27    1
     7     4    16   ar
     8     4    20   ar
     9     5    17    1
    10     5    21    1
    11     6     8    1
    12     6     9    1
    13     6    10    1
    14     7     8    1
    15     7    11    1
    16     7    14    1
    17     7    16    1
    18     9    12    1
    19    10    13    1
    20    11    15    1
    21    12    13    1
    22    14    17    1
    23    16    18   ar
    24    18    19   ar
    25    19    22   ar
    26    20    22   ar
    27    21    23    1
    28    23    24   ar
    29    24    25   ar
    30    25    26   ar
    31     5    28    1
    32     8    29    1
    33     8    30    1
    34     9    31    1
    35     9    32    1
    36    10    33    1
    37    10    34    1
    38    11    35    1
    39    11    36    1
    40    12    37    1
    41    12    38    1
    42    13    39    1
    43    13    40    1
    44    14    41    1
    45    14    42    1
    46    15    43    1
    47    15    44    1
    48    17    45    1
    49    17    46    1
    50    18    47    1
    51    19    48    1
    52    20    49    1
    53    21    50    1
    54    21    51    1
    55    22    52    1
    56    25    53    1
    57    26    54    1
    58    27    55    1
    59    27    56    1
    60    27    57    1
@<TRIPOS>MOLECULE
66553195
 57 60 0 0 0
SMALL
GASTEIGER

@<TRIPOS>ATOM
      1 S         120.5578  148.5274  149.0361 S.2     1  UNL11111   -0.1269
      2 O         123.8050  155.2051  145.5359 O.3     1  UNL11111   -0.4593
      3 O         117.5532  149.5632  151.2258 O.3     1  UNL11111   -0.5783
      4 N         121.1783  151.8251  144.6241 N.ar    1  UNL11111   -0.3349
      5 N         119.5972  151.6170  148.4485 N.3     1  UNL11111   -0.3404
      6 C         123.9817  154.3625  146.6782 C.3     1  UNL11111    0.0110
      7 C         121.5179  153.5271  146.3667 C.3     1  UNL11111    0.0128
      8 C         122.6293  154.0248  147.3362 C.3     1  UNL11111   -0.0152
      9 C         124.8712  155.1378  147.6674 C.3     1  UNL11111   -0.0341
     10 C         124.8923  153.1703  146.3575 C.3     1  UNL11111   -0.0341
     11 C         121.5153  154.5318  145.1709 C.3     1  UNL11111   -0.0192
     12 C         126.2887  155.0168  147.1104 C.3     1  UNL11111   -0.0539
     13 C         126.2833  153.7838  146.2115 C.3     1  UNL11111   -0.0539
     14 C         120.1002  153.6370  147.0341 C.3     1  UNL11111   -0.0315
     15 C         122.8976  154.6962  144.5619 C.3     1  UNL11111    0.0064
     16 C         121.7139  152.0968  145.8420 C.ar    1  UNL11111   -0.0010
     17 C         119.9055  153.0422  148.4390 C.3     1  UNL11111   -0.0284
     18 C         122.3622  151.0983  146.5695 C.ar    1  UNL11111   -0.0514
     19 C         122.4862  149.8190  146.0271 C.ar    1  UNL11111   -0.0708
     20 C         121.3014  150.5764  144.1231 C.ar    1  UNL11111   -0.0127
     21 C         119.7014  151.0704  149.8043 C.3     1  UNL11111    0.0161
     22 C         121.9458  149.5487  144.7800 C.ar    1  UNL11111   -0.0571
     23 C         119.4648  149.5875  149.8321 C.ar    1  UNL11111    0.0248
     24 C         118.4812  148.8855  150.5017 C.ar    1  UNL11111    0.0564
     25 C         118.5953  147.4763  150.3071 C.ar    1  UNL11111   -0.0135
     26 C         119.6838  147.1478  149.5288 C.ar    1  UNL11111   -0.0275
     27 C         116.8380  148.7703  152.1631 C.3     1  UNL11111    0.0304
     28 H         120.1985  151.0896  147.8213 H       1  UNL11111    0.1338
     29 H         122.2569  154.9552  147.7913 H       1  UNL11111    0.0529
     30 H         122.7884  153.3351  148.1718 H       1  UNL11111    0.0529
     31 H         124.8358  154.6811  148.6646 H       1  UNL11111    0.0462
     32 H         124.5810  156.1898  147.7612 H       1  UNL11111    0.0462
     33 H         124.6264  152.6318  145.4451 H       1  UNL11111    0.0462
     34 H         124.9057  152.4572  147.1903 H       1  UNL11111    0.0462
     35 H         121.1993  155.5183  145.5385 H       1  UNL11111    0.0502
     36 H         120.7934  154.2493  144.3956 H       1  UNL11111    0.0502
     37 H         127.0209  154.9253  147.9194 H       1  UNL11111    0.0342
     38 H         126.5540  155.9057  146.5272 H       1  UNL11111    0.0342
     39 H         126.4609  154.0814  145.1715 H       1  UNL11111    0.0342
     40 H         127.0671  153.0715  146.4880 H       1  UNL11111    0.0342
     41 H         119.3320  153.2368  146.3574 H       1  UNL11111    0.0446
     42 H         119.8626  154.7060  147.1353 H       1  UNL11111    0.0446
     43 H         123.2799  153.7695  144.1243 H       1  UNL11111    0.0891
     44 H         122.8514  155.4319  143.7521 H       1  UNL11111    0.0891
     45 H         120.7755  153.2656  149.0638 H       1  UNL11111    0.0605
     46 H         119.0557  153.5616  148.9004 H       1  UNL11111    0.0605
     47 H         122.7644  151.2791  147.5593 H       1  UNL11111    0.1002
     48 H         122.9914  149.0355  146.5851 H       1  UNL11111    0.0906
     49 H         120.8500  150.4238  143.1471 H       1  UNL11111    0.1371
     50 H         118.9761  151.5745  150.4537 H       1  UNL11111    0.0805
     51 H         120.6978  151.2672  150.2209 H       1  UNL11111    0.0805
     52 H         122.0165  148.5627  144.3362 H       1  UNL11111    0.0980
     53 H         117.9265  146.7275  150.7089 H       1  UNL11111    0.1153
     54 H         120.0093  146.1611  149.2295 H       1  UNL11111    0.1125
     55 H         116.1927  149.4377  152.7422 H       1  UNL11111    0.1070
     56 H         117.5207  148.2757  152.8631 H       1  UNL11111    0.1070
     57 H         116.1961  148.0403  151.6596 H       1  UNL11111    0.1070
@<TRIPOS>BOND
     1     1    23   ar
     2     1    26   ar
     3     2     6    1
     4     2    15    1
     5     3    24    1
     6     3    27    1
     7     4    16   ar
     8     4    20   ar
     9     5    17    1
    10     5    21    1
    11     6     8    1
    12     6     9    1
    13     6    10    1
    14     7     8    1
    15     7    11    1
    16     7    14    1
    17     7    16    1
    18     9    12    1
    19    10    13    1
    20    11    15    1
    21    12    13    1
    22    14    17    1
    23    16    18   ar
    24    18    19   ar
    25    19    22   ar
    26    20    22   ar
    27    21    23    1
    28    23    24   ar
    29    24    25   ar
    30    25    26   ar
    31     5    28    1
    32     8    29    1
    33     8    30    1
    34     9    31    1
    35     9    32    1
    36    10    33    1
    37    10    34    1
    38    11    35    1
    39    11    36    1
    40    12    37    1
    41    12    38    1
    42    13    39    1
    43    13    40    1
    44    14    41    1
    45    14    42    1
    46    15    43    1
    47    15    44    1
    48    17    45    1
    49    17    46    1
    50    18    47    1
    51    19    48    1
    52    20    49    1
    53    21    50    1
    54    21    51    1
    55    22    52    1
    56    25    53    1
    57    26    54    1
    58    27    55    1
    59    27    56    1
    60    27    57    1
@<TRIPOS>MOLECULE
66553195
 57 60 0 0 0
SMALL
GASTEIGER

@<TRIPOS>ATOM
      1 S         120.0113  152.8937  152.1522 S.2     1  UNL11111   -0.1269
      2 O         123.8058  154.9371  145.6781 O.3     1  UNL11111   -0.4593
      3 O         121.7034  150.0392  150.1781 O.3     1  UNL11111   -0.5783
      4 N         121.0947  151.5976  144.7552 N.ar    1  UNL11111   -0.3349
      5 N         119.4172  151.7841  148.5877 N.3     1  UNL11111   -0.3404
      6 C         123.8466  154.1734  146.8876 C.3     1  UNL11111    0.0110
      7 C         121.3892  153.3996  146.4063 C.3     1  UNL11111    0.0128
      8 C         122.4288  153.9215  147.4396 C.3     1  UNL11111   -0.0152
      9 C         124.6704  154.9930  147.8979 C.3     1  UNL11111   -0.0341
     10 C         124.7438  152.9386  146.7337 C.3     1  UNL11111   -0.0341
     11 C         121.5345  154.3197  145.1520 C.3     1  UNL11111   -0.0192
     12 C         126.1258  154.8015  147.4733 C.3     1  UNL11111   -0.0539
     13 C         126.1611  153.5049  146.6696 C.3     1  UNL11111   -0.0539
     14 C         119.9218  153.6032  146.9298 C.3     1  UNL11111   -0.0315
     15 C         122.9703  154.3896  144.6621 C.3     1  UNL11111    0.0064
     16 C         121.5682  151.9317  145.9843 C.ar    1  UNL11111   -0.0010
     17 C         119.5863  153.2162  148.3810 C.3     1  UNL11111   -0.0284
     18 C         122.1449  150.9635  146.8058 C.ar    1  UNL11111   -0.0514
     19 C         122.2444  149.6456  146.3603 C.ar    1  UNL11111   -0.0708
     20 C         121.1987  150.3146  144.3449 C.ar    1  UNL11111   -0.0127
     21 C         119.0656  151.4421  149.9702 C.3     1  UNL11111    0.0161
     22 C         121.7636  149.3107  145.1046 C.ar    1  UNL11111   -0.0571
     23 C         120.1854  151.6843  150.9449 C.ar    1  UNL11111    0.0248
     24 C         121.4028  151.0367  151.0499 C.ar    1  UNL11111    0.0564
     25 C         122.2010  151.5609  152.1111 C.ar    1  UNL11111   -0.0135
     26 C         121.5620  152.5754  152.7887 C.ar    1  UNL11111   -0.0275
     27 C         122.9158  149.3506  150.4552 C.3     1  UNL11111    0.0304
     28 H         120.2569  151.2691  148.3414 H       1  UNL11111    0.1338
     29 H         122.0547  154.8928  147.7975 H       1  UNL11111    0.0529
     30 H         122.4812  153.2837  148.3288 H       1  UNL11111    0.0529
     31 H         124.5370  154.6057  148.9158 H       1  UNL11111    0.0462
     32 H         124.4044  156.0555  147.8966 H       1  UNL11111    0.0462
     33 H         124.5418  152.3429  145.8407 H       1  UNL11111    0.0462
     34 H         124.6626  152.2877  147.6124 H       1  UNL11111    0.0462
     35 H         121.2317  155.3406  145.4245 H       1  UNL11111    0.0502
     36 H         120.8716  154.0124  144.3347 H       1  UNL11111    0.0502
     37 H         126.7865  154.7568  148.3452 H       1  UNL11111    0.0342
     38 H         126.4614  155.6383  146.8503 H       1  UNL11111    0.0342
     39 H         126.4391  153.7189  145.6309 H       1  UNL11111    0.0342
     40 H         126.8947  152.7961  147.0665 H       1  UNL11111    0.0342
     41 H         119.2082  153.1150  146.2512 H       1  UNL11111    0.0446
     42 H         119.6890  154.6759  146.8627 H       1  UNL11111    0.0446
     43 H         123.3514  153.4203  144.3278 H       1  UNL11111    0.0891
     44 H         123.0271  155.0650  143.8019 H       1  UNL11111    0.0891
     45 H         120.3377  153.6374  149.0546 H       1  UNL11111    0.0605
     46 H         118.6368  153.7073  148.6310 H       1  UNL11111    0.0605
     47 H         122.5076  151.2004  147.7987 H       1  UNL11111    0.1002
     48 H         122.6856  148.8853  146.9979 H       1  UNL11111    0.0906
     49 H         120.7981  150.1125  143.3560 H       1  UNL11111    0.1371
     50 H         118.8129  150.3748  149.9984 H       1  UNL11111    0.0805
     51 H         118.1491  151.9690  150.2630 H       1  UNL11111    0.0805
     52 H         121.8195  148.2952  144.7311 H       1  UNL11111    0.0980
     53 H         123.1930  151.2252  152.3824 H       1  UNL11111    0.1153
     54 H         121.9306  153.1438  153.6316 H       1  UNL11111    0.1125
     55 H         123.0171  148.5432  149.7237 H       1  UNL11111    0.1070
     56 H         122.8981  148.8974  151.4523 H       1  UNL11111    0.1070
     57 H         123.7795  150.0142  150.3397 H       1  UNL11111    0.1070
@<TRIPOS>BOND
     1     1    23   ar
     2     1    26   ar
     3     2     6    1
     4     2    15    1
     5     3    24    1
     6     3    27    1
     7     4    16   ar
     8     4    20   ar
     9     5    17    1
    10     5    21    1
    11     6     8    1
    12     6     9    1
    13     6    10    1
    14     7     8    1
    15     7    11    1
    16     7    14    1
    17     7    16    1
    18     9    12    1
    19    10    13    1
    20    11    15    1
    21    12    13    1
    22    14    17    1
    23    16    18   ar
    24    18    19   ar
    25    19    22   ar
    26    20    22   ar
    27    21    23    1
    28    23    24   ar
    29    24    25   ar
    30    25    26   ar
    31     5    28    1
    32     8    29    1
    33     8    30    1
    34     9    31    1
    35     9    32    1
    36    10    33    1
    37    10    34    1
    38    11    35    1
    39    11    36    1
    40    12    37    1
    41    12    38    1
    42    13    39    1
    43    13    40    1
    44    14    41    1
    45    14    42    1
    46    15    43    1
    47    15    44    1
    48    17    45    1
    49    17    46    1
    50    18    47    1
    51    19    48    1
    52    20    49    1
    53    21    50    1
    54    21    51    1
    55    22    52    1
    56    25    53    1
    57    26    54    1
    58    27    55    1
    59    27    56    1
    60    27    57    1
@<TRIPOS>MOLECULE
66553195
 57 60 0 0 0
SMALL
GASTEIGER

@<TRIPOS>ATOM
      1 S         115.6881  155.8768  144.5217 S.2     1  UNL11111   -0.1269
      2 O         124.1803  154.7491  145.5980 O.3     1  UNL11111   -0.4593
      3 O         117.8259  156.8554  147.5840 O.3     1  UNL11111   -0.5783
      4 N         121.7506  151.5627  144.8554 N.ar    1  UNL11111   -0.3349
      5 N         118.7576  154.4743  144.6245 N.3     1  UNL11111   -0.3404
      6 C         124.0307  154.0610  146.8431 C.3     1  UNL11111    0.0110
      7 C         121.5339  153.6096  146.2399 C.3     1  UNL11111    0.0128
      8 C         122.5658  154.0990  147.3017 C.3     1  UNL11111   -0.0152
      9 C         124.9286  154.7873  147.8595 C.3     1  UNL11111   -0.0341
     10 C         124.6883  152.6750  146.8219 C.3     1  UNL11111   -0.0341
     11 C         121.8765  154.3400  144.9158 C.3     1  UNL11111   -0.0192
     12 C         126.3449  154.3147  147.5383 C.3     1  UNL11111   -0.0539
     13 C         126.1883  152.9646  146.8440 C.3     1  UNL11111   -0.0539
     14 C         120.1105  154.0318  146.7425 C.3     1  UNL11111   -0.0315
     15 C         123.3531  154.2505  144.5504 C.3     1  UNL11111    0.0064
     16 C         121.5738  152.0772  146.0971 C.ar    1  UNL11111   -0.0010
     17 C         118.9064  153.6856  145.8475 C.3     1  UNL11111   -0.0284
     18 C         121.4036  151.2378  147.2026 C.ar    1  UNL11111   -0.0514
     19 C         121.4324  149.8553  147.0293 C.ar    1  UNL11111   -0.0708
     20 C         121.7733  150.2195  144.7117 C.ar    1  UNL11111   -0.0127
     21 C         118.4588  155.8948  144.8352 C.3     1  UNL11111    0.0161
     22 C         121.6224  149.3322  145.7593 C.ar    1  UNL11111   -0.0571
     23 C         117.1099  156.1396  145.4480 C.ar    1  UNL11111    0.0248
     24 C         116.8118  156.5918  146.7198 C.ar    1  UNL11111    0.0564
     25 C         115.4053  156.7096  146.9315 C.ar    1  UNL11111   -0.0135
     26 C         114.6810  156.3509  145.8161 C.ar    1  UNL11111   -0.0275
     27 C         117.4200  157.3484  148.8529 C.3     1  UNL11111    0.0304
     28 H         118.0036  154.0750  144.0659 H       1  UNL11111    0.1338
     29 H         122.3297  155.1506  147.5239 H       1  UNL11111    0.0529
     30 H         122.4527  153.5656  148.2530 H       1  UNL11111    0.0529
     31 H         124.6738  154.4952  148.8859 H       1  UNL11111    0.0462
     32 H         124.8581  155.8777  147.7840 H       1  UNL11111    0.0462
     33 H         124.4420  152.0676  145.9486 H       1  UNL11111    0.0462
     34 H         124.4180  152.1062  147.7201 H       1  UNL11111    0.0462
     35 H         121.6319  155.4043  145.0333 H       1  UNL11111    0.0502
     36 H         121.2843  153.9656  144.0742 H       1  UNL11111    0.0502
     37 H         126.9513  154.2378  148.4465 H       1  UNL11111    0.0342
     38 H         126.8455  155.0235  146.8688 H       1  UNL11111    0.0342
     39 H         126.5801  153.0253  145.8219 H       1  UNL11111    0.0342
     40 H         126.7399  152.1727  147.3605 H       1  UNL11111    0.0342
     41 H         120.1063  155.1070  146.9580 H       1  UNL11111    0.0446
     42 H         119.9253  153.5600  147.7177 H       1  UNL11111    0.0446
     43 H         123.6608  153.2381  144.2759 H       1  UNL11111    0.0891
     44 H         123.5408  154.8758  143.6707 H       1  UNL11111    0.0891
     45 H         118.9674  152.6312  145.5560 H       1  UNL11111    0.0605
     46 H         117.9920  153.7591  146.4485 H       1  UNL11111    0.0605
     47 H         121.2451  151.6406  148.1973 H       1  UNL11111    0.1002
     48 H         121.3040  149.1940  147.8813 H       1  UNL11111    0.0906
     49 H         121.9209  149.8674  143.6949 H       1  UNL11111    0.1371
     50 H         118.4929  156.3886  143.8553 H       1  UNL11111    0.0805
     51 H         119.2489  156.3802  145.4170 H       1  UNL11111    0.0805
     52 H         121.6489  148.2623  145.5888 H       1  UNL11111    0.0980
     53 H         114.9292  157.0393  147.8453 H       1  UNL11111    0.1153
     54 H         113.6062  156.3466  145.6978 H       1  UNL11111    0.1125
     55 H         118.3219  157.5319  149.4449 H       1  UNL11111    0.1070
     56 H         116.8143  156.6098  149.3887 H       1  UNL11111    0.1070
     57 H         116.8854  158.2995  148.7562 H       1  UNL11111    0.1070
@<TRIPOS>BOND
     1     1    23   ar
     2     1    26   ar
     3     2     6    1
     4     2    15    1
     5     3    24    1
     6     3    27    1
     7     4    16   ar
     8     4    20   ar
     9     5    17    1
    10     5    21    1
    11     6     8    1
    12     6     9    1
    13     6    10    1
    14     7     8    1
    15     7    11    1
    16     7    14    1
    17     7    16    1
    18     9    12    1
    19    10    13    1
    20    11    15    1
    21    12    13    1
    22    14    17    1
    23    16    18   ar
    24    18    19   ar
    25    19    22   ar
    26    20    22   ar
    27    21    23    1
    28    23    24   ar
    29    24    25   ar
    30    25    26   ar
    31     5    28    1
    32     8    29    1
    33     8    30    1
    34     9    31    1
    35     9    32    1
    36    10    33    1
    37    10    34    1
    38    11    35    1
    39    11    36    1
    40    12    37    1
    41    12    38    1
    42    13    39    1
    43    13    40    1
    44    14    41    1
    45    14    42    1
    46    15    43    1
    47    15    44    1
    48    17    45    1
    49    17    46    1
    50    18    47    1
    51    19    48    1
    52    20    49    1
    53    21    50    1
    54    21    51    1
    55    22    52    1
    56    25    53    1
    57    26    54    1
    58    27    55    1
    59    27    56    1
    60    27    57    1
@<TRIPOS>MOLECULE
66553195
 57 60 0 0 0
SMALL
GASTEIGER

@<TRIPOS>ATOM
      1 S         116.3551  155.2743  146.0794 S.2     1  UNL11111   -0.1269
      2 O         124.3519  154.8696  145.9830 O.3     1  UNL11111   -0.4593
      3 O         117.4171  151.7229  144.9992 O.3     1  UNL11111   -0.5783
      4 N         122.1441  151.3354  147.0590 N.ar    1  UNL11111   -0.3349
      5 N         118.2876  153.7824  148.3235 N.3     1  UNL11111   -0.3404
      6 C         124.1418  154.1085  147.1802 C.3     1  UNL11111    0.0110
      7 C         121.6921  153.6642  146.3801 C.3     1  UNL11111    0.0128
      8 C         122.6466  154.0561  147.5488 C.3     1  UNL11111   -0.0152
      9 C         124.9413  154.8126  148.2912 C.3     1  UNL11111   -0.0341
     10 C         124.8732  152.7613  147.1204 C.3     1  UNL11111   -0.0341
     11 C         122.1066  154.5393  145.1648 C.3     1  UNL11111   -0.0192
     12 C         126.3974  154.4245  148.0376 C.3     1  UNL11111   -0.0539
     13 C         126.3519  153.1270  147.2354 C.3     1  UNL11111   -0.0539
     14 C         120.2184  154.0420  146.7433 C.3     1  UNL11111   -0.0315
     15 C         123.5919  154.4288  144.8656 C.3     1  UNL11111    0.0064
     16 C         121.7294  152.1602  146.0655 C.ar    1  UNL11111   -0.0010
     17 C         119.6201  153.2995  147.9493 C.3     1  UNL11111   -0.0284
     18 C         121.2677  151.6425  144.8533 C.ar    1  UNL11111   -0.0514
     19 C         121.2768  150.2639  144.6451 C.ar    1  UNL11111   -0.0708
     20 C         122.1411  150.0025  146.8354 C.ar    1  UNL11111   -0.0127
     21 C         117.1848  153.1103  147.6305 C.3     1  UNL11111    0.0161
     22 C         121.7254  149.4242  145.6529 C.ar    1  UNL11111   -0.0571
     23 C         116.9071  153.6568  146.2595 C.ar    1  UNL11111    0.0248
     24 C         117.0021  153.0153  145.0385 C.ar    1  UNL11111    0.0564
     25 C         116.6377  153.8681  143.9533 C.ar    1  UNL11111   -0.0135
     26 C         116.2681  155.1239  144.3816 C.ar    1  UNL11111   -0.0275
     27 C         117.4681  151.1480  143.7017 C.3     1  UNL11111    0.0304
     28 H         118.2115  154.7883  148.1851 H       1  UNL11111    0.1338
     29 H         122.3604  155.0687  147.8702 H       1  UNL11111    0.0529
     30 H         122.5024  153.4156  148.4273 H       1  UNL11111    0.0529
     31 H         124.6372  154.4500  149.2811 H       1  UNL11111    0.0462
     32 H         124.8229  155.9013  148.2720 H       1  UNL11111    0.0462
     33 H         124.7005  152.1939  146.2029 H       1  UNL11111    0.0462
     34 H         124.5952  152.1317  147.9743 H       1  UNL11111    0.0462
     35 H         121.8929  155.5907  145.4041 H       1  UNL11111    0.0502
     36 H         121.5263  154.3116  144.2653 H       1  UNL11111    0.0502
     37 H         126.9415  154.3012  148.9796 H       1  UNL11111    0.0342
     38 H         126.9110  155.2030  147.4619 H       1  UNL11111    0.0342
     39 H         126.7826  153.2900  146.2404 H       1  UNL11111    0.0342
     40 H         126.9263  152.3282  147.7150 H       1  UNL11111    0.0342
     41 H         119.5927  153.8680  145.8619 H       1  UNL11111    0.0446
     42 H         120.1678  155.1220  146.9401 H       1  UNL11111    0.0446
     43 H         123.8847  153.4170  144.5701 H       1  UNL11111    0.0891
     44 H         123.8415  155.0869  144.0266 H       1  UNL11111    0.0891
     45 H         119.6029  152.2163  147.7905 H       1  UNL11111    0.0605
     46 H         120.2603  153.4698  148.8210 H       1  UNL11111    0.0605
     47 H         120.8778  152.2846  144.0721 H       1  UNL11111    0.1002
     48 H         120.9238  149.8503  143.7050 H       1  UNL11111    0.0906
     49 H         122.4921  149.3949  147.6644 H       1  UNL11111    0.1371
     50 H         116.2816  153.2466  148.2393 H       1  UNL11111    0.0805
     51 H         117.3479  152.0263  147.6018 H       1  UNL11111    0.0805
     52 H         121.7407  148.3482  145.5255 H       1  UNL11111    0.0980
     53 H         116.6362  153.5943  142.9068 H       1  UNL11111    0.1153
     54 H         115.9451  155.9612  143.7783 H       1  UNL11111    0.1125
     55 H         117.8077  150.1131  143.8066 H       1  UNL11111    0.1070
     56 H         118.1893  151.6718  143.0652 H       1  UNL11111    0.1070
     57 H         116.4764  151.1285  143.2372 H       1  UNL11111    0.1070
@<TRIPOS>BOND
     1     1    23   ar
     2     1    26   ar
     3     2     6    1
     4     2    15    1
     5     3    24    1
     6     3    27    1
     7     4    16   ar
     8     4    20   ar
     9     5    17    1
    10     5    21    1
    11     6     8    1
    12     6     9    1
    13     6    10    1
    14     7     8    1
    15     7    11    1
    16     7    14    1
    17     7    16    1
    18     9    12    1
    19    10    13    1
    20    11    15    1
    21    12    13    1
    22    14    17    1
    23    16    18   ar
    24    18    19   ar
    25    19    22   ar
    26    20    22   ar
    27    21    23    1
    28    23    24   ar
    29    24    25   ar
    30    25    26   ar
    31     5    28    1
    32     8    29    1
    33     8    30    1
    34     9    31    1
    35     9    32    1
    36    10    33    1
    37    10    34    1
    38    11    35    1
    39    11    36    1
    40    12    37    1
    41    12    38    1
    42    13    39    1
    43    13    40    1
    44    14    41    1
    45    14    42    1
    46    15    43    1
    47    15    44    1
    48    17    45    1
    49    17    46    1
    50    18    47    1
    51    19    48    1
    52    20    49    1
    53    21    50    1
    54    21    51    1
    55    22    52    1
    56    25    53    1
    57    26    54    1
    58    27    55    1
    59    27    56    1
    60    27    57    1
@<TRIPOS>MOLECULE
66553195
 57 60 0 0 0
SMALL
GASTEIGER

@<TRIPOS>ATOM
      1 S         121.8592  158.5874  146.5645 S.2     1  UNL11111   -0.1269
      2 O         123.9763  154.7586  145.3902 O.3     1  UNL11111   -0.4593
      3 O         120.0027  157.4923  149.7690 O.3     1  UNL11111   -0.5783
      4 N         121.4961  151.5346  144.6104 N.ar    1  UNL11111   -0.3349
      5 N         119.4971  156.1690  146.2100 N.3     1  UNL11111   -0.3404
      6 C         123.8570  154.1121  146.6618 C.3     1  UNL11111    0.0110
      7 C         121.3829  153.5321  146.0881 C.3     1  UNL11111    0.0128
      8 C         122.3912  154.0850  147.1331 C.3     1  UNL11111   -0.0152
      9 C         124.7163  154.9224  147.6489 C.3     1  UNL11111   -0.0341
     10 C         124.5941  152.7673  146.6810 C.3     1  UNL11111   -0.0341
     11 C         121.6696  154.2932  144.7654 C.3     1  UNL11111   -0.0192
     12 C         126.1565  154.5196  147.3396 C.3     1  UNL11111   -0.0539
     13 C         126.0752  153.1430  146.6860 C.3     1  UNL11111   -0.0539
     14 C         119.8890  153.7315  146.5316 C.3     1  UNL11111   -0.0315
     15 C         123.1399  154.2203  144.3686 C.3     1  UNL11111    0.0064
     16 C         121.5291  152.0046  145.8828 C.ar    1  UNL11111   -0.0010
     17 C         119.4691  155.0667  147.1632 C.3     1  UNL11111   -0.0284
     18 C         121.6174  151.1267  146.9684 C.ar    1  UNL11111   -0.0514
     19 C         121.7129  149.7552  146.7400 C.ar    1  UNL11111   -0.0708
     20 C         121.5914  150.2009  144.4146 C.ar    1  UNL11111   -0.0127
     21 C         119.3224  157.4732  146.8586 C.3     1  UNL11111    0.0161
     22 C         121.7043  149.2797  145.4377 C.ar    1  UNL11111   -0.0571
     23 C         120.5835  157.9482  147.5217 C.ar    1  UNL11111    0.0248
     24 C         120.9051  157.9584  148.8663 C.ar    1  UNL11111    0.0564
     25 C         122.2109  158.4851  149.1027 C.ar    1  UNL11111   -0.0135
     26 C         122.8386  158.8590  147.9353 C.ar    1  UNL11111   -0.0275
     27 C         120.4861  157.4025  151.1022 C.3     1  UNL11111    0.0304
     28 H         118.7545  156.0380  145.5255 H       1  UNL11111    0.1338
     29 H         122.1263  155.1311  147.3299 H       1  UNL11111    0.0529
     30 H         122.3046  153.5713  148.0970 H       1  UNL11111    0.0529
     31 H         124.4796  154.6535  148.6859 H       1  UNL11111    0.0462
     32 H         124.5849  156.0037  147.5352 H       1  UNL11111    0.0462
     33 H         124.3799  152.1228  145.8254 H       1  UNL11111    0.0462
     34 H         124.3625  152.2124  147.5982 H       1  UNL11111    0.0462
     35 H         121.4373  155.3544  144.8953 H       1  UNL11111    0.0502
     36 H         121.0393  153.9341  143.9434 H       1  UNL11111    0.0502
     37 H         126.7659  154.5035  148.2489 H       1  UNL11111    0.0342
     38 H         126.6174  155.2350  146.6488 H       1  UNL11111    0.0342
     39 H         126.4588  153.1957  145.6604 H       1  UNL11111    0.0342
     40 H         126.6736  152.3997  147.2223 H       1  UNL11111    0.0342
     41 H         119.6368  152.9707  147.2840 H       1  UNL11111    0.0446
     42 H         119.2296  153.5155  145.6784 H       1  UNL11111    0.0446
     43 H         123.4636  153.2076  144.1141 H       1  UNL11111    0.0891
     44 H         123.2991  154.8295  143.4723 H       1  UNL11111    0.0891
     45 H         118.4437  154.9578  147.5394 H       1  UNL11111    0.0605
     46 H         120.0932  155.2579  148.0406 H       1  UNL11111    0.0605
     47 H         121.6033  151.4894  147.9903 H       1  UNL11111    0.1002
     48 H         121.7876  149.0653  147.5757 H       1  UNL11111    0.0906
     49 H         121.5713  149.8849  143.3757 H       1  UNL11111    0.1371
     50 H         118.4847  157.4485  147.5662 H       1  UNL11111    0.0805
     51 H         119.0368  158.2014  146.0885 H       1  UNL11111    0.0805
     52 H         121.7760  148.2195  145.2249 H       1  UNL11111    0.0980
     53 H         122.6845  158.5925  150.0691 H       1  UNL11111    0.1153
     54 H         123.8274  159.2805  147.8187 H       1  UNL11111    0.1125
     55 H         119.6922  156.9687  151.7177 H       1  UNL11111    0.1070
     56 H         120.7175  158.3938  151.5060 H       1  UNL11111    0.1070
     57 H         121.3559  156.7394  151.1652 H       1  UNL11111    0.1070
@<TRIPOS>BOND
     1     1    23   ar
     2     1    26   ar
     3     2     6    1
     4     2    15    1
     5     3    24    1
     6     3    27    1
     7     4    16   ar
     8     4    20   ar
     9     5    17    1
    10     5    21    1
    11     6     8    1
    12     6     9    1
    13     6    10    1
    14     7     8    1
    15     7    11    1
    16     7    14    1
    17     7    16    1
    18     9    12    1
    19    10    13    1
    20    11    15    1
    21    12    13    1
    22    14    17    1
    23    16    18   ar
    24    18    19   ar
    25    19    22   ar
    26    20    22   ar
    27    21    23    1
    28    23    24   ar
    29    24    25   ar
    30    25    26   ar
    31     5    28    1
    32     8    29    1
    33     8    30    1
    34     9    31    1
    35     9    32    1
    36    10    33    1
    37    10    34    1
    38    11    35    1
    39    11    36    1
    40    12    37    1
    41    12    38    1
    42    13    39    1
    43    13    40    1
    44    14    41    1
    45    14    42    1
    46    15    43    1
    47    15    44    1
    48    17    45    1
    49    17    46    1
    50    18    47    1
    51    19    48    1
    52    20    49    1
    53    21    50    1
    54    21    51    1
    55    22    52    1
    56    25    53    1
    57    26    54    1
    58    27    55    1
    59    27    56    1
    60    27    57    1
@<TRIPOS>MOLECULE
66553195
 57 60 0 0 0
SMALL
GASTEIGER

@<TRIPOS>ATOM
      1 S         117.4836  155.0282  149.5703 S.2     1  UNL11111   -0.1269
      2 O         124.1709  154.8527  145.4826 O.3     1  UNL11111   -0.4593
      3 O         117.9706  151.2541  148.9153 O.3     1  UNL11111   -0.5783
      4 N         121.6661  151.7006  144.8587 N.ar    1  UNL11111   -0.3349
      5 N         117.6795  154.3818  146.3316 N.3     1  UNL11111   -0.3404
      6 C         124.0544  154.1816  146.7412 C.3     1  UNL11111    0.0110
      7 C         121.5376  153.7592  146.2283 C.3     1  UNL11111    0.0128
      8 C         122.6069  154.2455  147.2501 C.3     1  UNL11111   -0.0152
      9 C         124.9988  154.9051  147.7163 C.3     1  UNL11111   -0.0341
     10 C         124.6901  152.7854  146.7123 C.3     1  UNL11111   -0.0341
     11 C         121.8424  154.4710  144.8819 C.3     1  UNL11111   -0.0192
     12 C         126.3956  154.4073  147.3498 C.3     1  UNL11111   -0.0539
     13 C         126.1939  153.0532  146.6750 C.3     1  UNL11111   -0.0539
     14 C         120.1339  154.2167  146.7467 C.3     1  UNL11111   -0.0315
     15 C         123.3041  154.3545  144.4682 C.3     1  UNL11111    0.0064
     16 C         121.5399  152.2277  146.1019 C.ar    1  UNL11111   -0.0010
     17 C         118.9450  153.7925  145.8709 C.3     1  UNL11111   -0.0284
     18 C         121.3680  151.4058  147.2194 C.ar    1  UNL11111   -0.0514
     19 C         121.3531  150.0221  147.0585 C.ar    1  UNL11111   -0.0708
     20 C         121.6510  150.3554  144.7293 C.ar    1  UNL11111   -0.0127
     21 C         116.9466  153.5266  147.2787 C.3     1  UNL11111    0.0161
     22 C         121.5013  149.4826  145.7896 C.ar    1  UNL11111   -0.0571
     23 C         117.4761  153.5563  148.6823 C.ar    1  UNL11111    0.0248
     24 C         117.9383  152.5027  149.4493 C.ar    1  UNL11111    0.0564
     25 C         118.3469  152.9217  150.7514 C.ar    1  UNL11111   -0.0135
     26 C         118.1569  154.2720  150.9443 C.ar    1  UNL11111   -0.0275
     27 C         118.2125  150.2129  149.8514 C.3     1  UNL11111    0.0304
     28 H         117.0788  154.4946  145.5153 H       1  UNL11111    0.1338
     29 H         122.3906  155.3018  147.4698 H       1  UNL11111    0.0529
     30 H         122.5186  153.7212  148.2092 H       1  UNL11111    0.0529
     31 H         124.7769  154.6279  148.7544 H       1  UNL11111    0.0462
     32 H         124.9419  155.9955  147.6311 H       1  UNL11111    0.0462
     33 H         124.4026  152.1719  145.8561 H       1  UNL11111    0.0462
     34 H         124.4449  152.2310  147.6265 H       1  UNL11111    0.0462
     35 H         121.6164  155.5402  144.9959 H       1  UNL11111    0.0502
     36 H         121.2085  154.1021  144.0678 H       1  UNL11111    0.0502
     37 H         127.0328  154.3296  148.2366 H       1  UNL11111    0.0342
     38 H         126.8829  155.1019  146.6559 H       1  UNL11111    0.0342
     39 H         126.5475  153.0990  145.6383 H       1  UNL11111    0.0342
     40 H         126.7536  152.2582  147.1778 H       1  UNL11111    0.0342
     41 H         120.1279  155.3123  146.8350 H       1  UNL11111    0.0446
     42 H         119.9957  153.8376  147.7641 H       1  UNL11111    0.0446
     43 H         123.5874  153.3346  144.1958 H       1  UNL11111    0.0891
     44 H         123.4717  154.9672  143.5757 H       1  UNL11111    0.0891
     45 H         119.1095  154.1690  144.8556 H       1  UNL11111    0.0605
     46 H         118.8646  152.7036  145.7834 H       1  UNL11111    0.0605
     47 H         121.2308  151.8257  148.2108 H       1  UNL11111    0.1002
     48 H         121.2200  149.3734  147.9190 H       1  UNL11111    0.0906
     49 H         121.7656  149.9883  143.7135 H       1  UNL11111    0.1371
     50 H         116.8842  152.5003  146.8971 H       1  UNL11111    0.0805
     51 H         115.9090  153.8852  147.3116 H       1  UNL11111    0.0805
     52 H         121.4940  148.4108  145.6292 H       1  UNL11111    0.0980
     53 H         118.7576  152.2829  151.5214 H       1  UNL11111    0.1153
     54 H         118.3738  154.8525  151.8302 H       1  UNL11111    0.1125
     55 H         118.1247  149.2592  149.3221 H       1  UNL11111    0.1070
     56 H         117.4676  150.2181  150.6549 H       1  UNL11111    0.1070
     57 H         119.2276  150.2765  150.2571 H       1  UNL11111    0.1070
@<TRIPOS>BOND
     1     1    23   ar
     2     1    26   ar
     3     2     6    1
     4     2    15    1
     5     3    24    1
     6     3    27    1
     7     4    16   ar
     8     4    20   ar
     9     5    17    1
    10     5    21    1
    11     6     8    1
    12     6     9    1
    13     6    10    1
    14     7     8    1
    15     7    11    1
    16     7    14    1
    17     7    16    1
    18     9    12    1
    19    10    13    1
    20    11    15    1
    21    12    13    1
    22    14    17    1
    23    16    18   ar
    24    18    19   ar
    25    19    22   ar
    26    20    22   ar
    27    21    23    1
    28    23    24   ar
    29    24    25   ar
    30    25    26   ar
    31     5    28    1
    32     8    29    1
    33     8    30    1
    34     9    31    1
    35     9    32    1
    36    10    33    1
    37    10    34    1
    38    11    35    1
    39    11    36    1
    40    12    37    1
    41    12    38    1
    42    13    39    1
    43    13    40    1
    44    14    41    1
    45    14    42    1
    46    15    43    1
    47    15    44    1
    48    17    45    1
    49    17    46    1
    50    18    47    1
    51    19    48    1
    52    20    49    1
    53    21    50    1
    54    21    51    1
    55    22    52    1
    56    25    53    1
    57    26    54    1
    58    27    55    1
    59    27    56    1
    60    27    57    1
@<TRIPOS>MOLECULE
66553195
 57 60 0 0 0
SMALL
GASTEIGER

@<TRIPOS>ATOM
      1 S         116.5241  152.1780  149.1801 S.2     1  UNL11111   -0.1269
      2 O         123.8905  155.1318  145.7870 O.3     1  UNL11111   -0.4593
      3 O         115.4772  150.8328  145.6864 O.3     1  UNL11111   -0.5783
      4 N         121.9863  151.1589  147.1747 N.ar    1  UNL11111   -0.3349
      5 N         118.7038  151.5943  146.0517 N.3     1  UNL11111   -0.3404
      6 C         123.9465  154.2822  146.9394 C.3     1  UNL11111    0.0110
      7 C         121.5500  153.4326  146.3683 C.3     1  UNL11111    0.0128
      8 C         122.5299  153.9880  147.4509 C.3     1  UNL11111   -0.0152
      9 C         124.7574  155.0367  148.0066 C.3     1  UNL11111   -0.0341
     10 C         124.8439  153.0594  146.7096 C.3     1  UNL11111   -0.0341
     11 C         121.6593  154.3861  145.1499 C.3     1  UNL11111   -0.0192
     12 C         126.2134  154.8839  147.5720 C.3     1  UNL11111   -0.0539
     13 C         126.2651  153.6202  146.7179 C.3     1  UNL11111   -0.0539
     14 C         120.1062  153.5254  146.9767 C.3     1  UNL11111   -0.0315
     15 C         123.1010  154.6308  144.7165 C.3     1  UNL11111    0.0064
     16 C         121.8756  151.9618  146.0837 C.ar    1  UNL11111   -0.0010
     17 C         118.9260  153.0410  146.1121 C.3     1  UNL11111   -0.0284
     18 C         121.9888  151.4314  144.7973 C.ar    1  UNL11111   -0.0514
     19 C         122.2519  150.0713  144.6337 C.ar    1  UNL11111   -0.0708
     20 C         122.2490  149.8461  146.9914 C.ar    1  UNL11111   -0.0127
     21 C         118.1974  151.0134  147.3001 C.3     1  UNL11111    0.0161
     22 C         122.3896  149.2607  145.7499 C.ar    1  UNL11111   -0.0571
     23 C         116.7985  151.4395  147.6445 C.ar    1  UNL11111    0.0248
     24 C         115.6126  151.3406  146.9355 C.ar    1  UNL11111    0.0564
     25 C         114.5131  151.9355  147.6146 C.ar    1  UNL11111   -0.0135
     26 C         114.8660  152.4157  148.8536 C.ar    1  UNL11111   -0.0275
     27 C         115.8364  149.4591  145.5995 C.3     1  UNL11111    0.0304
     28 H         119.5820  151.1242  145.8419 H       1  UNL11111    0.1338
     29 H         122.1152  154.9416  147.8111 H       1  UNL11111    0.0529
     30 H         122.5708  153.3336  148.3311 H       1  UNL11111    0.0529
     31 H         124.6249  154.5789  148.9949 H       1  UNL11111    0.0462
     32 H         124.4839  156.0948  148.0772 H       1  UNL11111    0.0462
     33 H         124.6618  152.5324  145.7708 H       1  UNL11111    0.0462
     34 H         124.7354  152.3413  147.5317 H       1  UNL11111    0.0462
     35 H         121.2367  155.3598  145.4347 H       1  UNL11111    0.0502
     36 H         121.0709  154.0387  144.2948 H       1  UNL11111    0.0502
     37 H         126.8801  154.8180  148.4378 H       1  UNL11111    0.0342
     38 H         126.5313  155.7489  146.9786 H       1  UNL11111    0.0342
     39 H         126.5816  153.8731  145.6993 H       1  UNL11111    0.0342
     40 H         126.9791  152.8898  147.1114 H       1  UNL11111    0.0342
     41 H         119.9063  154.5823  147.2063 H       1  UNL11111    0.0446
     42 H         120.0823  153.0234  147.9518 H       1  UNL11111    0.0446
     43 H         123.5683  153.7388  144.2913 H       1  UNL11111    0.0891
     44 H         123.1122  155.3894  143.9265 H       1  UNL11111    0.0891
     45 H         118.0125  153.5389  146.4584 H       1  UNL11111    0.0605
     46 H         119.0591  153.3954  145.0848 H       1  UNL11111    0.0605
     47 H         121.8658  152.0389  143.9085 H       1  UNL11111    0.1002
     48 H         122.3445  149.6499  143.6362 H       1  UNL11111    0.0906
     49 H         122.3429  149.2616  147.9020 H       1  UNL11111    0.1371
     50 H         118.8951  151.2040  148.1232 H       1  UNL11111    0.0805
     51 H         118.1938  149.9225  147.1859 H       1  UNL11111    0.0805
     52 H         122.5973  148.2012  145.6541 H       1  UNL11111    0.0980
     53 H         113.5106  151.9972  147.2118 H       1  UNL11111    0.1153
     54 H         114.2304  152.9012  149.5810 H       1  UNL11111    0.1125
     55 H         115.2524  149.0114  144.7894 H       1  UNL11111    0.1070
     56 H         115.6132  148.9050  146.5189 H       1  UNL11111    0.1070
     57 H         116.8931  149.3576  145.3383 H       1  UNL11111    0.1070
@<TRIPOS>BOND
     1     1    23   ar
     2     1    26   ar
     3     2     6    1
     4     2    15    1
     5     3    24    1
     6     3    27    1
     7     4    16   ar
     8     4    20   ar
     9     5    17    1
    10     5    21    1
    11     6     8    1
    12     6     9    1
    13     6    10    1
    14     7     8    1
    15     7    11    1
    16     7    14    1
    17     7    16    1
    18     9    12    1
    19    10    13    1
    20    11    15    1
    21    12    13    1
    22    14    17    1
    23    16    18   ar
    24    18    19   ar
    25    19    22   ar
    26    20    22   ar
    27    21    23    1
    28    23    24   ar
    29    24    25   ar
    30    25    26   ar
    31     5    28    1
    32     8    29    1
    33     8    30    1
    34     9    31    1
    35     9    32    1
    36    10    33    1
    37    10    34    1
    38    11    35    1
    39    11    36    1
    40    12    37    1
    41    12    38    1
    42    13    39    1
    43    13    40    1
    44    14    41    1
    45    14    42    1
    46    15    43    1
    47    15    44    1
    48    17    45    1
    49    17    46    1
    50    18    47    1
    51    19    48    1
    52    20    49    1
    53    21    50    1
    54    21    51    1
    55    22    52    1
    56    25    53    1
    57    26    54    1
    58    27    55    1
    59    27    56    1
    60    27    57    1
@<TRIPOS>MOLECULE
66553195
 57 60 0 0 0
SMALL
GASTEIGER

@<TRIPOS>ATOM
      1 S         117.1500  152.0858  150.5753 S.2     1  UNL11111   -0.1269
      2 O         124.1228  154.9037  145.7336 O.3     1  UNL11111   -0.4593
      3 O         119.5046  154.1995  152.7846 O.3     1  UNL11111   -0.5783
      4 N         122.0430  151.2956  146.8180 N.ar    1  UNL11111   -0.3349
      5 N         120.1517  153.5211  149.2391 N.3     1  UNL11111   -0.3404
      6 C         124.0192  154.0961  146.9136 C.3     1  UNL11111    0.0110
      7 C         121.5056  153.6575  146.3137 C.3     1  UNL11111    0.0128
      8 C         122.5625  154.0027  147.4053 C.3     1  UNL11111   -0.0152
      9 C         124.8970  154.7704  147.9837 C.3     1  UNL11111   -0.0341
     10 C         124.7586  152.7626  146.7437 C.3     1  UNL11111   -0.0341
     11 C         121.8144  154.5913  145.1080 C.3     1  UNL11111   -0.0192
     12 C         126.3322  154.4126  147.6022 C.3     1  UNL11111   -0.0539
     13 C         126.2383  153.1421  146.7619 C.3     1  UNL11111   -0.0539
     14 C         120.0575  154.0109  146.8052 C.3     1  UNL11111   -0.0315
     15 C         123.2673  154.5002  144.6731 C.3     1  UNL11111    0.0064
     16 C         121.5278  152.1698  145.9180 C.ar    1  UNL11111   -0.0010
     17 C         119.4832  153.2059  147.9838 C.3     1  UNL11111   -0.0284
     18 C         120.9644  151.7106  144.7247 C.ar    1  UNL11111   -0.0514
     19 C         120.9706  150.3455  144.4385 C.ar    1  UNL11111   -0.0708
     20 C         122.0365  149.9778  146.5210 C.ar    1  UNL11111   -0.0127
     21 C         119.8987  152.5353  150.2893 C.3     1  UNL11111    0.0161
     22 C         121.5202  149.4586  145.3513 C.ar    1  UNL11111   -0.0571
     23 C         118.6364  152.8011  151.0539 C.ar    1  UNL11111    0.0248
     24 C         118.4720  153.5455  152.2043 C.ar    1  UNL11111    0.0564
     25 C         117.1252  153.5933  152.6539 C.ar    1  UNL11111   -0.0135
     26 C         116.2978  152.8365  151.8554 C.ar    1  UNL11111   -0.0275
     27 C         119.9422  153.5242  153.9621 C.3     1  UNL11111    0.0304
     28 H         119.8920  154.4486  149.5713 H       1  UNL11111    0.1338
     29 H         122.2971  154.9925  147.8055 H       1  UNL11111    0.0529
     30 H         122.5164  153.3101  148.2529 H       1  UNL11111    0.0529
     31 H         124.6764  154.3682  148.9805 H       1  UNL11111    0.0462
     32 H         124.7649  155.8573  148.0145 H       1  UNL11111    0.0462
     33 H         124.5216  152.2305  145.8195 H       1  UNL11111    0.0462
     34 H         124.5529  152.0953  147.5895 H       1  UNL11111    0.0462
     35 H         121.6228  155.6296  145.4142 H       1  UNL11111    0.0502
     36 H         121.1577  154.4039  144.2528 H       1  UNL11111    0.0502
     37 H         126.9512  154.2662  148.4933 H       1  UNL11111    0.0342
     38 H         126.7885  155.2175  147.0147 H       1  UNL11111    0.0342
     39 H         126.5931  153.3425  145.7442 H       1  UNL11111    0.0342
     40 H         126.8534  152.3345  147.1713 H       1  UNL11111    0.0342
     41 H         119.3626  153.8812  145.9630 H       1  UNL11111    0.0446
     42 H         120.0098  155.0797  147.0574 H       1  UNL11111    0.0446
     43 H         123.5357  153.5020  144.3148 H       1  UNL11111    0.0891
     44 H         123.4394  155.1906  143.8405 H       1  UNL11111    0.0891
     45 H         118.4186  153.4522  148.0716 H       1  UNL11111    0.0605
     46 H         119.5399  152.1360  147.7573 H       1  UNL11111    0.0605
     47 H         120.5033  152.3871  144.0144 H       1  UNL11111    0.1002
     48 H         120.5398  149.9795  143.5109 H       1  UNL11111    0.0906
     49 H         122.4718  149.3329  147.2786 H       1  UNL11111    0.1371
     50 H         120.7428  152.5857  150.9882 H       1  UNL11111    0.0805
     51 H         119.9200  151.5113  149.8957 H       1  UNL11111    0.0805
     52 H         121.5382  148.3921  145.1610 H       1  UNL11111    0.0980
     53 H         116.7816  154.1509  153.5155 H       1  UNL11111    0.1153
     54 H         115.2322  152.6854  151.9605 H       1  UNL11111    0.1125
     55 H         120.7994  154.0708  154.3662 H       1  UNL11111    0.1070
     56 H         120.2690  152.5040  153.7302 H       1  UNL11111    0.1070
     57 H         119.1574  153.5071  154.7259 H       1  UNL11111    0.1070
@<TRIPOS>BOND
     1     1    23   ar
     2     1    26   ar
     3     2     6    1
     4     2    15    1
     5     3    24    1
     6     3    27    1
     7     4    16   ar
     8     4    20   ar
     9     5    17    1
    10     5    21    1
    11     6     8    1
    12     6     9    1
    13     6    10    1
    14     7     8    1
    15     7    11    1
    16     7    14    1
    17     7    16    1
    18     9    12    1
    19    10    13    1
    20    11    15    1
    21    12    13    1
    22    14    17    1
    23    16    18   ar
    24    18    19   ar
    25    19    22   ar
    26    20    22   ar
    27    21    23    1
    28    23    24   ar
    29    24    25   ar
    30    25    26   ar
    31     5    28    1
    32     8    29    1
    33     8    30    1
    34     9    31    1
    35     9    32    1
    36    10    33    1
    37    10    34    1
    38    11    35    1
    39    11    36    1
    40    12    37    1
    41    12    38    1
    42    13    39    1
    43    13    40    1
    44    14    41    1
    45    14    42    1
    46    15    43    1
    47    15    44    1
    48    17    45    1
    49    17    46    1
    50    18    47    1
    51    19    48    1
    52    20    49    1
    53    21    50    1
    54    21    51    1
    55    22    52    1
    56    25    53    1
    57    26    54    1
    58    27    55    1
    59    27    56    1
    60    27    57    1
@<TRIPOS>MOLECULE
66553195
 57 60 0 0 0
SMALL
GASTEIGER

@<TRIPOS>ATOM
      1 S         119.3224  156.6975  148.4702 S.2     1  UNL11111   -0.1269
      2 O         123.7897  154.5465  145.2765 O.3     1  UNL11111   -0.4593
      3 O         116.2933  155.6488  146.3211 O.3     1  UNL11111   -0.5783
      4 N         121.6284  150.8634  145.0578 N.ar    1  UNL11111   -0.3349
      5 N         117.9434  153.2323  147.9798 N.3     1  UNL11111   -0.3404
      6 C         123.7047  154.1389  146.6459 C.3     1  UNL11111    0.0110
      7 C         121.3820  153.0714  146.1324 C.3     1  UNL11111    0.0128
      8 C         122.2378  153.9587  147.0795 C.3     1  UNL11111   -0.0152
      9 C         124.3758  155.2461  147.4777 C.3     1  UNL11111   -0.0341
     10 C         124.6395  152.9585  146.9406 C.3     1  UNL11111   -0.0341
     11 C         121.6356  153.6121  144.6920 C.3     1  UNL11111   -0.0192
     12 C         125.8763  155.0282  147.2882 C.3     1  UNL11111   -0.0539
     13 C         126.0412  153.5636  146.8918 C.3     1  UNL11111   -0.0539
     14 C         119.8541  153.2663  146.4112 C.3     1  UNL11111   -0.0315
     15 C         123.1172  153.6860  144.3611 C.3     1  UNL11111    0.0064
     16 C         121.7046  151.5696  146.2144 C.ar    1  UNL11111   -0.0010
     17 C         119.3743  152.9463  147.8343 C.3     1  UNL11111   -0.0284
     18 C         122.0103  150.9317  147.4189 C.ar    1  UNL11111   -0.0514
     19 C         122.2654  149.5609  147.4291 C.ar    1  UNL11111   -0.0708
     20 C         121.8784  149.5360  145.0921 C.ar    1  UNL11111   -0.0127
     21 C         117.6565  154.4738  148.7148 C.3     1  UNL11111    0.0161
     22 C         122.2013  148.8459  146.2433 C.ar    1  UNL11111   -0.0571
     23 C         118.0055  155.7202  147.9588 C.ar    1  UNL11111    0.0248
     24 C         117.3873  156.2552  146.8453 C.ar    1  UNL11111    0.0564
     25 C         118.0059  157.4615  146.4046 C.ar    1  UNL11111   -0.0135
     26 C         119.0803  157.8070  147.1938 C.ar    1  UNL11111   -0.0275
     27 C         116.2222  155.7327  144.9034 C.3     1  UNL11111    0.0304
     28 H         117.5066  152.4687  148.4937 H       1  UNL11111    0.1338
     29 H         121.7804  154.9588  147.0797 H       1  UNL11111    0.0529
     30 H         122.1960  153.6178  148.1192 H       1  UNL11111    0.0529
     31 H         124.1270  155.1415  148.5411 H       1  UNL11111    0.0462
     32 H         124.0871  156.2520  147.1542 H       1  UNL11111    0.0462
     33 H         124.5658  152.1342  146.2276 H       1  UNL11111    0.0462
     34 H         124.4568  152.5619  147.9465 H       1  UNL11111    0.0462
     35 H         121.2307  154.6317  144.6223 H       1  UNL11111    0.0502
     36 H         121.1094  153.0214  143.9328 H       1  UNL11111    0.0502
     37 H         126.4271  155.2655  148.2042 H       1  UNL11111    0.0342
     38 H         126.2646  155.6770  146.4948 H       1  UNL11111    0.0342
     39 H         126.4495  153.4974  145.8765 H       1  UNL11111    0.0342
     40 H         126.7296  153.0338  147.5577 H       1  UNL11111    0.0342
     41 H         119.2782  152.6522  145.7036 H       1  UNL11111    0.0446
     42 H         119.5966  154.3056  146.1772 H       1  UNL11111    0.0446
     43 H         123.5950  152.7025  144.3377 H       1  UNL11111    0.0891
     44 H         123.2430  154.1191  143.3631 H       1  UNL11111    0.0891
     45 H         119.5014  151.8741  148.0161 H       1  UNL11111    0.0605
     46 H         119.9681  153.4596  148.5971 H       1  UNL11111    0.0605
     47 H         122.0477  151.4728  148.3573 H       1  UNL11111    0.1002
     48 H         122.5072  149.0565  148.3604 H       1  UNL11111    0.0906
     49 H         121.8067  149.0280  144.1348 H       1  UNL11111    0.1371
     50 H         118.1372  154.4470  149.7008 H       1  UNL11111    0.0805
     51 H         116.5775  154.4977  148.9150 H       1  UNL11111    0.0805
     52 H         122.3917  147.7794  146.2169 H       1  UNL11111    0.0980
     53 H         117.6828  158.0594  145.5629 H       1  UNL11111    0.1153
     54 H         119.7276  158.6669  147.0903 H       1  UNL11111    0.1125
     55 H         115.4343  155.0521  144.5665 H       1  UNL11111    0.1070
     56 H         117.1614  155.4168  144.4349 H       1  UNL11111    0.1070
     57 H         115.9495  156.7435  144.5840 H       1  UNL11111    0.1070
@<TRIPOS>BOND
     1     1    23   ar
     2     1    26   ar
     3     2     6    1
     4     2    15    1
     5     3    24    1
     6     3    27    1
     7     4    16   ar
     8     4    20   ar
     9     5    17    1
    10     5    21    1
    11     6     8    1
    12     6     9    1
    13     6    10    1
    14     7     8    1
    15     7    11    1
    16     7    14    1
    17     7    16    1
    18     9    12    1
    19    10    13    1
    20    11    15    1
    21    12    13    1
    22    14    17    1
    23    16    18   ar
    24    18    19   ar
    25    19    22   ar
    26    20    22   ar
    27    21    23    1
    28    23    24   ar
    29    24    25   ar
    30    25    26   ar
    31     5    28    1
    32     8    29    1
    33     8    30    1
    34     9    31    1
    35     9    32    1
    36    10    33    1
    37    10    34    1
    38    11    35    1
    39    11    36    1
    40    12    37    1
    41    12    38    1
    42    13    39    1
    43    13    40    1
    44    14    41    1
    45    14    42    1
    46    15    43    1
    47    15    44    1
    48    17    45    1
    49    17    46    1
    50    18    47    1
    51    19    48    1
    52    20    49    1
    53    21    50    1
    54    21    51    1
    55    22    52    1
    56    25    53    1
    57    26    54    1
    58    27    55    1
    59    27    56    1
    60    27    57    1
@<TRIPOS>MOLECULE
66553195
 57 60 0 0 0
SMALL
GASTEIGER

@<TRIPOS>ATOM
      1 S         116.6199  158.1405  145.6932 S.2     1  UNL11111   -0.1269
      2 O         124.2016  154.6803  145.6832 O.3     1  UNL11111   -0.4593
      3 O         118.3570  157.8234  149.1261 O.3     1  UNL11111   -0.5783
      4 N         121.7023  151.3270  147.0089 N.ar    1  UNL11111   -0.3349
      5 N         119.4966  156.2468  145.8805 N.3     1  UNL11111   -0.3404
      6 C         123.9653  153.9694  146.9069 C.3     1  UNL11111    0.0110
      7 C         121.4857  153.6414  146.1687 C.3     1  UNL11111    0.0128
      8 C         122.4776  154.0328  147.3050 C.3     1  UNL11111   -0.0152
      9 C         124.8322  154.6498  147.9817 C.3     1  UNL11111   -0.0341
     10 C         124.6025  152.5748  146.8725 C.3     1  UNL11111   -0.0341
     11 C         121.9050  154.4755  144.9345 C.3     1  UNL11111   -0.0192
     12 C         126.2534  154.1601  147.7105 C.3     1  UNL11111   -0.0539
     13 C         126.1049  152.8392  146.9609 C.3     1  UNL11111   -0.0539
     14 C         120.0032  153.9189  146.5954 C.3     1  UNL11111   -0.0315
     15 C         123.3769  154.2798  144.5943 C.3     1  UNL11111    0.0064
     16 C         121.5167  152.1161  145.9179 C.ar    1  UNL11111   -0.0010
     17 C         119.5944  155.3367  147.0197 C.3     1  UNL11111   -0.0284
     18 C         121.2694  151.5530  144.6640 C.ar    1  UNL11111   -0.0514
     19 C         121.2630  150.1657  144.5215 C.ar    1  UNL11111   -0.0708
     20 C         121.6915  149.9857  146.8448 C.ar    1  UNL11111   -0.0127
     21 C         119.2923  157.6396  146.2994 C.3     1  UNL11111    0.0161
     22 C         121.4829  149.3631  145.6306 C.ar    1  UNL11111   -0.0571
     23 C         117.9038  157.9012  146.8075 C.ar    1  UNL11111    0.0248
     24 C         117.4658  157.9928  148.1151 C.ar    1  UNL11111    0.0564
     25 C         116.0680  158.2689  148.1953 C.ar    1  UNL11111   -0.0135
     26 C         115.4883  158.3742  146.9499 C.ar    1  UNL11111   -0.0275
     27 C         117.7867  157.7870  150.4269 C.3     1  UNL11111    0.0304
     28 H         118.7162  155.9713  145.2853 H       1  UNL11111    0.1338
     29 H         122.2818  155.0784  147.5743 H       1  UNL11111    0.0529
     30 H         122.2970  153.4522  148.2183 H       1  UNL11111    0.0529
     31 H         124.5262  154.3353  148.9872 H       1  UNL11111    0.0462
     32 H         124.7846  155.7430  147.9333 H       1  UNL11111    0.0462
     33 H         124.3808  151.9998  145.9705 H       1  UNL11111    0.0462
     34 H         124.2924  151.9862  147.7443 H       1  UNL11111    0.0462
     35 H         121.7863  155.5403  145.1628 H       1  UNL11111    0.0502
     36 H         121.2776  154.2734  144.0609 H       1  UNL11111    0.0502
     37 H         126.8135  154.0385  148.6432 H       1  UNL11111    0.0342
     38 H         126.7992  154.8819  147.0921 H       1  UNL11111    0.0342
     39 H         126.5357  152.9312  145.9570 H       1  UNL11111    0.0342
     40 H         126.6256  152.0204  147.4676 H       1  UNL11111    0.0342
     41 H         119.7655  153.2666  147.4491 H       1  UNL11111    0.0446
     42 H         119.3280  153.5931  145.7903 H       1  UNL11111    0.0446
     43 H         123.6100  153.2534  144.2973 H       1  UNL11111    0.0891
     44 H         123.6373  154.9181  143.7433 H       1  UNL11111    0.0891
     45 H         118.6128  155.2617  147.5035 H       1  UNL11111    0.0605
     46 H         120.2859  155.7205  147.7753 H       1  UNL11111    0.0605
     47 H         121.0688  152.1633  143.7914 H       1  UNL11111    0.1002
     48 H         121.0785  149.7176  143.5492 H       1  UNL11111    0.0906
     49 H         121.8597  149.4089  147.7495 H       1  UNL11111    0.1371
     50 H         119.4845  158.2815  145.4304 H       1  UNL11111    0.0805
     51 H         120.0439  157.9312  147.0434 H       1  UNL11111    0.0805
     52 H         121.4825  148.2823  145.5528 H       1  UNL11111    0.0980
     53 H         115.4993  158.3905  149.1073 H       1  UNL11111    0.1153
     54 H         114.4523  158.5788  146.7173 H       1  UNL11111    0.1125
     55 H         118.5928  157.5922  151.1408 H       1  UNL11111    0.1070
     56 H         117.0573  156.9748  150.5184 H       1  UNL11111    0.1070
     57 H         117.3359  158.7505  150.6870 H       1  UNL11111    0.1070
@<TRIPOS>BOND
     1     1    23   ar
     2     1    26   ar
     3     2     6    1
     4     2    15    1
     5     3    24    1
     6     3    27    1
     7     4    16   ar
     8     4    20   ar
     9     5    17    1
    10     5    21    1
    11     6     8    1
    12     6     9    1
    13     6    10    1
    14     7     8    1
    15     7    11    1
    16     7    14    1
    17     7    16    1
    18     9    12    1
    19    10    13    1
    20    11    15    1
    21    12    13    1
    22    14    17    1
    23    16    18   ar
    24    18    19   ar
    25    19    22   ar
    26    20    22   ar
    27    21    23    1
    28    23    24   ar
    29    24    25   ar
    30    25    26   ar
    31     5    28    1
    32     8    29    1
    33     8    30    1
    34     9    31    1
    35     9    32    1
    36    10    33    1
    37    10    34    1
    38    11    35    1
    39    11    36    1
    40    12    37    1
    41    12    38    1
    42    13    39    1
    43    13    40    1
    44    14    41    1
    45    14    42    1
    46    15    43    1
    47    15    44    1
    48    17    45    1
    49    17    46    1
    50    18    47    1
    51    19    48    1
    52    20    49    1
    53    21    50    1
    54    21    51    1
    55    22    52    1
    56    25    53    1
    57    26    54    1
    58    27    55    1
    59    27    56    1
    60    27    57    1
@<TRIPOS>MOLECULE
66553195
 57 60 0 0 0
SMALL
GASTEIGER

@<TRIPOS>ATOM
      1 S         117.7233  150.6550  146.1469 S.2     1  UNL11111   -0.1269
      2 O         123.9600  155.1566  145.6111 O.3     1  UNL11111   -0.4593
      3 O         117.3423  150.5018  149.9854 O.3     1  UNL11111   -0.5783
      4 N         121.2742  151.9884  144.5381 N.ar    1  UNL11111   -0.3349
      5 N         118.4476  153.3429  148.7627 N.3     1  UNL11111   -0.3404
      6 C         124.0093  154.2962  146.7537 C.3     1  UNL11111    0.0110
      7 C         121.5151  153.6743  146.3234 C.3     1  UNL11111    0.0128
      8 C         122.6049  154.0886  147.3507 C.3     1  UNL11111   -0.0152
      9 C         124.9308  154.9789  147.7796 C.3     1  UNL11111   -0.0341
     10 C         124.8073  153.0183  146.4637 C.3     1  UNL11111   -0.0341
     11 C         121.6405  154.6714  145.1323 C.3     1  UNL11111   -0.0192
     12 C         126.3472  154.7285  147.2647 C.3     1  UNL11111   -0.0539
     13 C         126.2591  153.4868  146.3816 C.3     1  UNL11111   -0.0539
     14 C         120.0777  153.8711  146.9163 C.3     1  UNL11111   -0.0315
     15 C         123.0593  154.7346  144.5907 C.3     1  UNL11111    0.0064
     16 C         121.6313  152.2215  145.8267 C.ar    1  UNL11111   -0.0010
     17 C         119.7989  153.1415  148.2379 C.3     1  UNL11111   -0.0284
     18 C         122.0168  151.1687  146.6597 C.ar    1  UNL11111   -0.0514
     19 C         122.0507  149.8676  146.1598 C.ar    1  UNL11111   -0.0708
     20 C         121.3131  150.7188  144.0763 C.ar    1  UNL11111   -0.0127
     21 C         117.3721  152.7345  147.9663 C.3     1  UNL11111    0.0161
     22 C         121.6935  149.6344  144.8413 C.ar    1  UNL11111   -0.0571
     23 C         117.5225  151.2560  147.7451 C.ar    1  UNL11111    0.0248
     24 C         117.5236  150.2289  148.6688 C.ar    1  UNL11111    0.0564
     25 C         117.6927  148.9493  148.0607 C.ar    1  UNL11111   -0.0135
     26 C         117.8239  149.0412  146.6930 C.ar    1  UNL11111   -0.0275
     27 C         118.0099  149.5987  150.8561 C.3     1  UNL11111    0.0304
     28 H         118.2565  154.3389  148.8505 H       1  UNL11111    0.1338
     29 H         122.2910  155.0533  147.7773 H       1  UNL11111    0.0529
     30 H         122.6591  153.3982  148.1991 H       1  UNL11111    0.0529
     31 H         124.8199  154.5213  148.7706 H       1  UNL11111    0.0462
     32 H         124.7375  156.0530  147.8727 H       1  UNL11111    0.0462
     33 H         124.5275  152.5106  145.5379 H       1  UNL11111    0.0462
     34 H         124.7094  152.3051  147.2910 H       1  UNL11111    0.0462
     35 H         121.3759  155.6777  145.4865 H       1  UNL11111    0.0502
     36 H         120.9386  154.4372  144.3233 H       1  UNL11111    0.0502
     37 H         127.0489  154.5894  148.0935 H       1  UNL11111    0.0342
     38 H         126.7009  155.5823  146.6755 H       1  UNL11111    0.0342
     39 H         126.5181  153.7464  145.3485 H       1  UNL11111    0.0342
     40 H         126.9510  152.7034  146.7067 H       1  UNL11111    0.0342
     41 H         119.3449  153.5648  146.1592 H       1  UNL11111    0.0446
     42 H         119.9051  154.9429  147.0872 H       1  UNL11111    0.0446
     43 H         123.3887  153.7869  144.1553 H       1  UNL11111    0.0891
     44 H         123.1079  155.4811  143.7909 H       1  UNL11111    0.0891
     45 H         120.0092  152.0729  148.1657 H       1  UNL11111    0.0605
     46 H         120.4838  153.5235  149.0029 H       1  UNL11111    0.0605
     47 H         122.2761  151.3287  147.7000 H       1  UNL11111    0.1002
     48 H         122.3443  149.0431  146.8029 H       1  UNL11111    0.0906
     49 H         121.0149  150.5960  143.0393 H       1  UNL11111    0.1371
     50 H         117.2609  153.2729  147.0178 H       1  UNL11111    0.0805
     51 H         116.4305  152.8968  148.5061 H       1  UNL11111    0.0805
     52 H         121.7034  148.6349  144.4233 H       1  UNL11111    0.0980
     53 H         117.7070  148.0033  148.5842 H       1  UNL11111    0.1153
     54 H         117.9619  148.2368  145.9845 H       1  UNL11111    0.1125
     55 H         117.9660  150.0131  151.8678 H       1  UNL11111    0.1070
     56 H         119.0663  149.4875  150.5858 H       1  UNL11111    0.1070
     57 H         117.5085  148.6257  150.8715 H       1  UNL11111    0.1070
@<TRIPOS>BOND
     1     1    23   ar
     2     1    26   ar
     3     2     6    1
     4     2    15    1
     5     3    24    1
     6     3    27    1
     7     4    16   ar
     8     4    20   ar
     9     5    17    1
    10     5    21    1
    11     6     8    1
    12     6     9    1
    13     6    10    1
    14     7     8    1
    15     7    11    1
    16     7    14    1
    17     7    16    1
    18     9    12    1
    19    10    13    1
    20    11    15    1
    21    12    13    1
    22    14    17    1
    23    16    18   ar
    24    18    19   ar
    25    19    22   ar
    26    20    22   ar
    27    21    23    1
    28    23    24   ar
    29    24    25   ar
    30    25    26   ar
    31     5    28    1
    32     8    29    1
    33     8    30    1
    34     9    31    1
    35     9    32    1
    36    10    33    1
    37    10    34    1
    38    11    35    1
    39    11    36    1
    40    12    37    1
    41    12    38    1
    42    13    39    1
    43    13    40    1
    44    14    41    1
    45    14    42    1
    46    15    43    1
    47    15    44    1
    48    17    45    1
    49    17    46    1
    50    18    47    1
    51    19    48    1
    52    20    49    1
    53    21    50    1
    54    21    51    1
    55    22    52    1
    56    25    53    1
    57    26    54    1
    58    27    55    1
    59    27    56    1
    60    27    57    1
@<TRIPOS>MOLECULE
66553195
 57 60 0 0 0
SMALL
GASTEIGER

@<TRIPOS>ATOM
      1 S         119.8791  154.2148  151.1062 S.2     1  UNL11111   -0.1269
      2 O         123.8737  154.9368  145.6613 O.3     1  UNL11111   -0.4593
      3 O         118.1392  157.5682  150.2128 O.3     1  UNL11111   -0.5783
      4 N         121.4692  151.7204  144.7669 N.ar    1  UNL11111   -0.3349
      5 N         118.0806  155.2076  147.8504 N.3     1  UNL11111   -0.3404
      6 C         123.8638  154.1584  146.8635 C.3     1  UNL11111    0.0110
      7 C         121.3704  153.5834  146.4046 C.3     1  UNL11111    0.0128
      8 C         122.4367  154.0566  147.4319 C.3     1  UNL11111   -0.0152
      9 C         124.7869  154.8777  147.8624 C.3     1  UNL11111   -0.0341
     10 C         124.6134  152.8311  146.6898 C.3     1  UNL11111   -0.0341
     11 C         121.5503  154.4628  145.1387 C.3     1  UNL11111   -0.0192
     12 C         126.2033  154.5353  147.4048 C.3     1  UNL11111   -0.0539
     13 C         126.0865  153.2307  146.6216 C.3     1  UNL11111   -0.0539
     14 C         119.9201  153.7329  146.9771 C.3     1  UNL11111   -0.0315
     15 C         122.9917  154.4688  144.6434 C.3     1  UNL11111    0.0064
     16 C         121.5156  152.0809  146.0737 C.ar    1  UNL11111   -0.0010
     17 C         119.4417  155.1559  147.3025 C.3     1  UNL11111   -0.0284
     18 C         121.6213  151.1174  147.0818 C.ar    1  UNL11111   -0.0514
     19 C         121.7182  149.7703  146.7386 C.ar    1  UNL11111   -0.0708
     20 C         121.5663  150.4076  144.4597 C.ar    1  UNL11111   -0.0127
     21 C         117.9203  154.6042  149.1762 C.3     1  UNL11111    0.0161
     22 C         121.6945  149.4050  145.4012 C.ar    1  UNL11111   -0.0571
     23 C         118.7750  155.2234  150.2452 C.ar    1  UNL11111    0.0248
     24 C         118.8510  156.5267  150.7050 C.ar    1  UNL11111    0.0564
     25 C         119.8542  156.7068  151.6964 C.ar    1  UNL11111   -0.0135
     26 C         120.4801  155.5258  152.0198 C.ar    1  UNL11111   -0.0275
     27 C         116.7520  157.4751  150.5167 C.3     1  UNL11111    0.0304
     28 H         117.4421  154.7494  147.2025 H       1  UNL11111    0.1338
     29 H         122.1640  155.0683  147.7580 H       1  UNL11111    0.0529
     30 H         122.4294  153.4443  148.3407 H       1  UNL11111    0.0529
     31 H         124.6334  154.4977  148.8802 H       1  UNL11111    0.0462
     32 H         124.6357  155.9625  147.8732 H       1  UNL11111    0.0462
     33 H         124.3414  152.2702  145.7930 H       1  UNL11111    0.0462
     34 H         124.4574  152.1829  147.5607 H       1  UNL11111    0.0462
     35 H         121.3022  155.5027  145.3824 H       1  UNL11111    0.0502
     36 H         120.8728  154.1585  144.3323 H       1  UNL11111    0.0502
     37 H         126.8817  154.4383  148.2585 H       1  UNL11111    0.0342
     38 H         126.6015  155.3253  146.7578 H       1  UNL11111    0.0342
     39 H         126.3895  153.3940  145.5807 H       1  UNL11111    0.0342
     40 H         126.7318  152.4477  147.0321 H       1  UNL11111    0.0342
     41 H         119.8494  153.1215  147.8847 H       1  UNL11111    0.0446
     42 H         119.2090  153.2936  146.2621 H       1  UNL11111    0.0446
     43 H         123.3228  153.4950  144.2738 H       1  UNL11111    0.0891
     44 H         123.0780  155.1641  143.8014 H       1  UNL11111    0.0891
     45 H         120.1348  155.6732  147.9705 H       1  UNL11111    0.0605
     46 H         119.4157  155.7467  146.3813 H       1  UNL11111    0.0605
     47 H         121.6212  151.3940  148.1309 H       1  UNL11111    0.1002
     48 H         121.8062  149.0135  147.5129 H       1  UNL11111    0.0906
     49 H         121.5349  150.1786  143.3984 H       1  UNL11111    0.1371
     50 H         118.0739  153.5206  149.1154 H       1  UNL11111    0.0805
     51 H         116.8714  154.7196  149.4738 H       1  UNL11111    0.0805
     52 H         121.7672  148.3664  145.1002 H       1  UNL11111    0.0980
     53 H         120.0975  157.6583  152.1513 H       1  UNL11111    0.1153
     54 H         121.2676  155.3718  152.7445 H       1  UNL11111    0.1125
     55 H         116.3396  158.4887  150.5136 H       1  UNL11111    0.1070
     56 H         116.5682  157.0400  151.5060 H       1  UNL11111    0.1070
     57 H         116.2295  156.9029  149.7455 H       1  UNL11111    0.1070
@<TRIPOS>BOND
     1     1    23   ar
     2     1    26   ar
     3     2     6    1
     4     2    15    1
     5     3    24    1
     6     3    27    1
     7     4    16   ar
     8     4    20   ar
     9     5    17    1
    10     5    21    1
    11     6     8    1
    12     6     9    1
    13     6    10    1
    14     7     8    1
    15     7    11    1
    16     7    14    1
    17     7    16    1
    18     9    12    1
    19    10    13    1
    20    11    15    1
    21    12    13    1
    22    14    17    1
    23    16    18   ar
    24    18    19   ar
    25    19    22   ar
    26    20    22   ar
    27    21    23    1
    28    23    24   ar
    29    24    25   ar
    30    25    26   ar
    31     5    28    1
    32     8    29    1
    33     8    30    1
    34     9    31    1
    35     9    32    1
    36    10    33    1
    37    10    34    1
    38    11    35    1
    39    11    36    1
    40    12    37    1
    41    12    38    1
    42    13    39    1
    43    13    40    1
    44    14    41    1
    45    14    42    1
    46    15    43    1
    47    15    44    1
    48    17    45    1
    49    17    46    1
    50    18    47    1
    51    19    48    1
    52    20    49    1
    53    21    50    1
    54    21    51    1
    55    22    52    1
    56    25    53    1
    57    26    54    1
    58    27    55    1
    59    27    56    1
    60    27    57    1
@<TRIPOS>MOLECULE
66553195
 57 60 0 0 0
SMALL
GASTEIGER

@<TRIPOS>ATOM
      1 S         115.7063  155.5488  143.9246 S.2     1  UNL11111   -0.1269
      2 O         124.0460  154.8419  145.9279 O.3     1  UNL11111   -0.4593
      3 O         117.3834  152.1442  143.2284 O.3     1  UNL11111   -0.5783
      4 N         121.6545  151.6258  145.1057 N.ar    1  UNL11111   -0.3349
      5 N         117.5568  154.0884  146.4575 N.3     1  UNL11111   -0.3404
      6 C         123.8743  154.1562  147.1725 C.3     1  UNL11111    0.0110
      7 C         121.4106  153.6565  146.5012 C.3     1  UNL11111    0.0128
      8 C         122.3964  154.1703  147.5907 C.3     1  UNL11111   -0.0152
      9 C         124.7332  154.9004  148.2091 C.3     1  UNL11111   -0.0341
     10 C         124.5545  152.7809  147.1735 C.3     1  UNL11111   -0.0341
     11 C         121.7722  154.3959  145.1833 C.3     1  UNL11111   -0.0192
     12 C         126.1650  154.4483  147.9283 C.3     1  UNL11111   -0.0539
     13 C         126.0484  153.0953  147.2317 C.3     1  UNL11111   -0.0539
     14 C         119.9605  154.0574  146.9328 C.3     1  UNL11111   -0.0315
     15 C         123.2592  154.3264  144.8584 C.3     1  UNL11111    0.0064
     16 C         121.4767  152.1282  146.3535 C.ar    1  UNL11111   -0.0010
     17 C         118.8516  153.5908  145.9781 C.3     1  UNL11111   -0.0284
     18 C         121.3022  151.2835  147.4533 C.ar    1  UNL11111   -0.0514
     19 C         121.3375  149.9028  147.2710 C.ar    1  UNL11111   -0.0708
     20 C         121.6857  150.2829  144.9561 C.ar    1  UNL11111   -0.0127
     21 C         116.4349  153.5202  145.6957 C.3     1  UNL11111    0.0161
     22 C         121.5360  149.3887  145.9984 C.ar    1  UNL11111   -0.0571
     23 C         116.3777  154.0095  144.2772 C.ar    1  UNL11111    0.0248
     24 C         116.8235  153.3770  143.1327 C.ar    1  UNL11111    0.0564
     25 C         116.5978  154.1571  141.9607 C.ar    1  UNL11111   -0.0135
     26 C         115.9992  155.3633  142.2517 C.ar    1  UNL11111   -0.0275
     27 C         118.2446  151.8049  142.1499 C.3     1  UNL11111    0.0304
     28 H         117.5268  155.1029  146.3606 H       1  UNL11111    0.1338
     29 H         122.1322  155.2176  147.8011 H       1  UNL11111    0.0529
     30 H         122.2655  153.6379  148.5402 H       1  UNL11111    0.0529
     31 H         124.4554  154.6084  149.2296 H       1  UNL11111    0.0462
     32 H         124.6480  155.9892  148.1270 H       1  UNL11111    0.0462
     33 H         124.3399  152.1662  146.2968 H       1  UNL11111    0.0462
     34 H         124.2712  152.2112  148.0671 H       1  UNL11111    0.0462
     35 H         121.5078  155.4564  145.2962 H       1  UNL11111    0.0502
     36 H         121.1992  154.0205  144.3280 H       1  UNL11111    0.0502
     37 H         126.7466  154.3811  148.8534 H       1  UNL11111    0.0342
     38 H         126.6739  155.1638  147.2723 H       1  UNL11111    0.0342
     39 H         126.4637  153.1620  146.2193 H       1  UNL11111    0.0342
     40 H         126.6006  152.3131  147.7621 H       1  UNL11111    0.0342
     41 H         119.9083  155.1514  147.0275 H       1  UNL11111    0.0446
     42 H         119.7503  153.6615  147.9362 H       1  UNL11111    0.0446
     43 H         123.5890  153.3174  144.5976 H       1  UNL11111    0.0891
     44 H         123.4623  154.9514  143.9820 H       1  UNL11111    0.0891
     45 H         119.0478  153.9683  144.9708 H       1  UNL11111    0.0605
     46 H         118.8316  152.4965  145.9404 H       1  UNL11111    0.0605
     47 H         121.1257  151.6811  148.4474 H       1  UNL11111    0.1002
     48 H         121.2028  149.2359  148.1178 H       1  UNL11111    0.0906
     49 H         121.8384  149.9350  143.9387 H       1  UNL11111    0.1371
     50 H         115.5058  153.7936  146.2112 H       1  UNL11111    0.0805
     51 H         116.4722  152.4244  145.7288 H       1  UNL11111    0.0805
     52 H         121.5663  148.3198  145.8225 H       1  UNL11111    0.0980
     53 H         116.8492  153.8628  140.9506 H       1  UNL11111    0.1153
     54 H         115.7155  156.1451  141.5607 H       1  UNL11111    0.1125
     55 H         117.6731  151.6296  141.2327 H       1  UNL11111    0.1070
     56 H         118.7542  150.8718  142.4092 H       1  UNL11111    0.1070
     57 H         119.0112  152.5719  141.9931 H       1  UNL11111    0.1070
@<TRIPOS>BOND
     1     1    23   ar
     2     1    26   ar
     3     2     6    1
     4     2    15    1
     5     3    24    1
     6     3    27    1
     7     4    16   ar
     8     4    20   ar
     9     5    17    1
    10     5    21    1
    11     6     8    1
    12     6     9    1
    13     6    10    1
    14     7     8    1
    15     7    11    1
    16     7    14    1
    17     7    16    1
    18     9    12    1
    19    10    13    1
    20    11    15    1
    21    12    13    1
    22    14    17    1
    23    16    18   ar
    24    18    19   ar
    25    19    22   ar
    26    20    22   ar
    27    21    23    1
    28    23    24   ar
    29    24    25   ar
    30    25    26   ar
    31     5    28    1
    32     8    29    1
    33     8    30    1
    34     9    31    1
    35     9    32    1
    36    10    33    1
    37    10    34    1
    38    11    35    1
    39    11    36    1
    40    12    37    1
    41    12    38    1
    42    13    39    1
    43    13    40    1
    44    14    41    1
    45    14    42    1
    46    15    43    1
    47    15    44    1
    48    17    45    1
    49    17    46    1
    50    18    47    1
    51    19    48    1
    52    20    49    1
    53    21    50    1
    54    21    51    1
    55    22    52    1
    56    25    53    1
    57    26    54    1
    58    27    55    1
    59    27    56    1
    60    27    57    1
@<TRIPOS>MOLECULE
66553195
 57 60 0 0 0
SMALL
GASTEIGER

@<TRIPOS>ATOM
      1 S         116.1505  153.1649  142.7807 S.2     1  UNL11111   -0.1269
      2 O         124.0121  154.8249  145.7172 O.3     1  UNL11111   -0.4593
      3 O         116.9969  156.3634  144.7728 O.3     1  UNL11111   -0.5783
      4 N         121.7213  151.5375  144.8585 N.ar    1  UNL11111   -0.3349
      5 N         117.5957  153.8955  146.3736 N.3     1  UNL11111   -0.3404
      6 C         123.9074  154.0917  146.9420 C.3     1  UNL11111    0.0110
      7 C         121.4469  153.5099  146.3251 C.3     1  UNL11111    0.0128
      8 C         122.4439  154.0272  147.4030 C.3     1  UNL11111   -0.0152
      9 C         124.7648  154.8387  147.9777 C.3     1  UNL11111   -0.0341
     10 C         124.6457  152.7484  146.8765 C.3     1  UNL11111   -0.0341
     11 C         121.7404  154.3054  145.0223 C.3     1  UNL11111   -0.0192
     12 C         126.2053  154.4606  147.6383 C.3     1  UNL11111   -0.0539
     13 C         126.1255  153.1278  146.8985 C.3     1  UNL11111   -0.0539
     14 C         119.9979  153.8431  146.8098 C.3     1  UNL11111   -0.0315
     15 C         123.2181  154.3084  144.6537 C.3     1  UNL11111    0.0064
     16 C         121.5638  151.9917  146.1265 C.ar    1  UNL11111   -0.0010
     17 C         118.8734  153.3795  145.8704 C.3     1  UNL11111   -0.0284
     18 C         121.4570  151.1056  147.2018 C.ar    1  UNL11111   -0.0514
     19 C         121.5399  149.7339  146.9718 C.ar    1  UNL11111   -0.0708
     20 C         121.7979  150.2026  144.6614 C.ar    1  UNL11111   -0.0127
     21 C         116.4638  153.5002  145.5239 C.3     1  UNL11111    0.0161
     22 C         121.7166  149.2698  145.6769 C.ar    1  UNL11111   -0.0571
     23 C         116.4787  154.1356  144.1592 C.ar    1  UNL11111    0.0248
     24 C         116.7197  155.4513  143.8038 C.ar    1  UNL11111    0.0564
     25 C         116.6347  155.6529  142.3935 C.ar    1  UNL11111   -0.0135
     26 C         116.3342  154.4894  141.7207 C.ar    1  UNL11111   -0.0275
     27 C         117.4822  157.6107  144.2940 C.3     1  UNL11111    0.0304
     28 H         117.6247  154.9179  146.3712 H       1  UNL11111    0.1338
     29 H         122.1433  155.0545  147.6585 H       1  UNL11111    0.0529
     30 H         122.3646  153.4576  148.3365 H       1  UNL11111    0.0529
     31 H         124.5321  154.5009  148.9953 H       1  UNL11111    0.0462
     32 H         124.6295  155.9248  147.9358 H       1  UNL11111    0.0462
     33 H         124.4291  152.1526  145.9874 H       1  UNL11111    0.0462
     34 H         124.4164  152.1390  147.7593 H       1  UNL11111    0.0462
     35 H         121.4361  155.3499  145.1769 H       1  UNL11111    0.0502
     36 H         121.1597  153.9341  144.1705 H       1  UNL11111    0.0502
     37 H         126.8182  154.3884  148.5425 H       1  UNL11111    0.0342
     38 H         126.6615  155.2198  146.9927 H       1  UNL11111    0.0342
     39 H         126.5033  153.2476  145.8764 H       1  UNL11111    0.0342
     40 H         126.7291  152.3539  147.3831 H       1  UNL11111    0.0342
     41 H         119.9177  154.9311  146.9466 H       1  UNL11111    0.0446
     42 H         119.8272  153.4061  147.8036 H       1  UNL11111    0.0446
     43 H         123.5815  153.3226  144.3524 H       1  UNL11111    0.0891
     44 H         123.3695  154.9679  143.7922 H       1  UNL11111    0.0891
     45 H         119.0592  153.7465  144.8575 H       1  UNL11111    0.0605
     46 H         118.8375  152.2853  145.8383 H       1  UNL11111    0.0605
     47 H         121.2981  151.4632  148.2138 H       1  UNL11111    0.1002
     48 H         121.4591  149.0347  147.7992 H       1  UNL11111    0.0906
     49 H         121.9289  149.8954  143.6278 H       1  UNL11111    0.1371
     50 H         115.5416  153.8128  146.0294 H       1  UNL11111    0.0805
     51 H         116.4192  152.4059  145.4636 H       1  UNL11111    0.0805
     52 H         121.7819  148.2093  145.4634 H       1  UNL11111    0.0980
     53 H         116.7808  156.5936  141.8798 H       1  UNL11111    0.1153
     54 H         116.2110  154.3538  140.6551 H       1  UNL11111    0.1125
     55 H         117.7491  158.2214  145.1619 H       1  UNL11111    0.1070
     56 H         116.7082  158.1459  143.7343 H       1  UNL11111    0.1070
     57 H         118.3859  157.4800  143.6885 H       1  UNL11111    0.1070
@<TRIPOS>BOND
     1     1    23   ar
     2     1    26   ar
     3     2     6    1
     4     2    15    1
     5     3    24    1
     6     3    27    1
     7     4    16   ar
     8     4    20   ar
     9     5    17    1
    10     5    21    1
    11     6     8    1
    12     6     9    1
    13     6    10    1
    14     7     8    1
    15     7    11    1
    16     7    14    1
    17     7    16    1
    18     9    12    1
    19    10    13    1
    20    11    15    1
    21    12    13    1
    22    14    17    1
    23    16    18   ar
    24    18    19   ar
    25    19    22   ar
    26    20    22   ar
    27    21    23    1
    28    23    24   ar
    29    24    25   ar
    30    25    26   ar
    31     5    28    1
    32     8    29    1
    33     8    30    1
    34     9    31    1
    35     9    32    1
    36    10    33    1
    37    10    34    1
    38    11    35    1
    39    11    36    1
    40    12    37    1
    41    12    38    1
    42    13    39    1
    43    13    40    1
    44    14    41    1
    45    14    42    1
    46    15    43    1
    47    15    44    1
    48    17    45    1
    49    17    46    1
    50    18    47    1
    51    19    48    1
    52    20    49    1
    53    21    50    1
    54    21    51    1
    55    22    52    1
    56    25    53    1
    57    26    54    1
    58    27    55    1
    59    27    56    1
    60    27    57    1
@<TRIPOS>MOLECULE
66553195
 57 60 0 0 0
SMALL
GASTEIGER

@<TRIPOS>ATOM
      1 S         116.7137  156.1573  144.2367 S.2     1  UNL11111   -0.1269
      2 O         124.0972  154.7133  145.7428 O.3     1  UNL11111   -0.4593
      3 O         115.1754  152.7450  143.3057 O.3     1  UNL11111   -0.5783
      4 N         121.6027  151.5690  144.9734 N.ar    1  UNL11111   -0.3349
      5 N         117.6372  154.2100  146.5477 N.3     1  UNL11111   -0.3404
      6 C         123.9503  154.0200  146.9861 C.3     1  UNL11111    0.0110
      7 C         121.4518  153.5901  146.3916 C.3     1  UNL11111    0.0128
      8 C         122.4886  154.0628  147.4527 C.3     1  UNL11111   -0.0152
      9 C         124.8562  154.7361  148.0025 C.3     1  UNL11111   -0.0341
     10 C         124.5989  152.6302  146.9544 C.3     1  UNL11111   -0.0341
     11 C         121.7889  154.3330  145.0699 C.3     1  UNL11111   -0.0192
     12 C         126.2683  154.2545  147.6767 C.3     1  UNL11111   -0.0539
     13 C         126.1006  152.9109  146.9723 C.3     1  UNL11111   -0.0539
     14 C         120.0364  154.0345  146.8824 C.3     1  UNL11111   -0.0315
     15 C         123.2623  154.2275  144.6955 C.3     1  UNL11111    0.0064
     16 C         121.4668  152.0631  146.2289 C.ar    1  UNL11111   -0.0010
     17 C         118.8610  153.6377  145.9756 C.3     1  UNL11111   -0.0284
     18 C         121.3014  151.2113  147.3242 C.ar    1  UNL11111   -0.0514
     19 C         121.3031  149.8318  147.1279 C.ar    1  UNL11111   -0.0708
     20 C         121.6011  150.2276  144.8088 C.ar    1  UNL11111   -0.0127
     21 C         116.4331  153.8285  145.8027 C.3     1  UNL11111    0.0161
     22 C         121.4592  149.3263  145.8459 C.ar    1  UNL11111   -0.0571
     23 C         116.2595  154.5151  144.4759 C.ar    1  UNL11111    0.0248
     24 C         115.6607  154.0083  143.3399 C.ar    1  UNL11111    0.0564
     25 C         115.6696  154.9176  142.2471 C.ar    1  UNL11111   -0.0135
     26 C         116.2204  156.1287  142.5994 C.ar    1  UNL11111   -0.0275
     27 C         113.7568  152.7371  143.1627 C.3     1  UNL11111    0.0304
     28 H         117.7030  155.2279  146.5394 H       1  UNL11111    0.1338
     29 H         122.2590  155.1133  147.6867 H       1  UNL11111    0.0529
     30 H         122.3762  153.5205  148.3992 H       1  UNL11111    0.0529
     31 H         124.6019  154.4421  149.0286 H       1  UNL11111    0.0462
     32 H         124.7931  155.8272  147.9314 H       1  UNL11111    0.0462
     33 H         124.3444  152.0294  146.0787 H       1  UNL11111    0.0462
     34 H         124.3288  152.0581  147.8505 H       1  UNL11111    0.0462
     35 H         121.5574  155.3991  145.2011 H       1  UNL11111    0.0502
     36 H         121.1764  153.9816  144.2318 H       1  UNL11111    0.0502
     37 H         126.8742  154.1658  148.5842 H       1  UNL11111    0.0342
     38 H         126.7745  154.9646  147.0128 H       1  UNL11111    0.0342
     39 H         126.4883  152.9777  145.9490 H       1  UNL11111    0.0342
     40 H         126.6500  152.1119  147.4800 H       1  UNL11111    0.0342
     41 H         120.0349  155.1281  146.9986 H       1  UNL11111    0.0446
     42 H         119.8527  153.6310  147.8884 H       1  UNL11111    0.0446
     43 H         123.5573  153.2127  144.4163 H       1  UNL11111    0.0891
     44 H         123.4531  154.8548  143.8180 H       1  UNL11111    0.0891
     45 H         119.0197  154.0104  144.9596 H       1  UNL11111    0.0605
     46 H         118.7721  152.5470  145.9328 H       1  UNL11111    0.0605
     47 H         121.1615  151.6024  148.3266 H       1  UNL11111    0.1002
     48 H         121.1771  149.1591  147.9714 H       1  UNL11111    0.0906
     49 H         121.7202  149.8881  143.7840 H       1  UNL11111    0.1371
     50 H         115.5649  154.0846  146.4228 H       1  UNL11111    0.0805
     51 H         116.4032  152.7387  145.6815 H       1  UNL11111    0.0805
     52 H         121.4635  148.2589  145.6586 H       1  UNL11111    0.0980
     53 H         115.2921  154.6990  141.2566 H       1  UNL11111    0.1153
     54 H         116.3513  157.0033  141.9771 H       1  UNL11111    0.1125
     55 H         113.4189  151.6977  143.2102 H       1  UNL11111    0.1070
     56 H         113.4492  153.1505  142.1966 H       1  UNL11111    0.1070
     57 H         113.2789  153.2864  143.9822 H       1  UNL11111    0.1070
@<TRIPOS>BOND
     1     1    23   ar
     2     1    26   ar
     3     2     6    1
     4     2    15    1
     5     3    24    1
     6     3    27    1
     7     4    16   ar
     8     4    20   ar
     9     5    17    1
    10     5    21    1
    11     6     8    1
    12     6     9    1
    13     6    10    1
    14     7     8    1
    15     7    11    1
    16     7    14    1
    17     7    16    1
    18     9    12    1
    19    10    13    1
    20    11    15    1
    21    12    13    1
    22    14    17    1
    23    16    18   ar
    24    18    19   ar
    25    19    22   ar
    26    20    22   ar
    27    21    23    1
    28    23    24   ar
    29    24    25   ar
    30    25    26   ar
    31     5    28    1
    32     8    29    1
    33     8    30    1
    34     9    31    1
    35     9    32    1
    36    10    33    1
    37    10    34    1
    38    11    35    1
    39    11    36    1
    40    12    37    1
    41    12    38    1
    42    13    39    1
    43    13    40    1
    44    14    41    1
    45    14    42    1
    46    15    43    1
    47    15    44    1
    48    17    45    1
    49    17    46    1
    50    18    47    1
    51    19    48    1
    52    20    49    1
    53    21    50    1
    54    21    51    1
    55    22    52    1
    56    25    53    1
    57    26    54    1
    58    27    55    1
    59    27    56    1
    60    27    57    1
@<TRIPOS>MOLECULE
66553195
 57 60 0 0 0
SMALL
GASTEIGER

@<TRIPOS>ATOM
      1 S         116.9222  151.0760  143.4881 S.2     1  UNL11111   -0.1269
      2 O         123.8609  154.9899  145.8576 O.3     1  UNL11111   -0.4593
      3 O         114.6717  151.3629  146.6125 O.3     1  UNL11111   -0.5783
      4 N         121.8594  151.6033  144.7532 N.ar    1  UNL11111   -0.3349
      5 N         117.4809  153.4995  146.1667 N.3     1  UNL11111   -0.3404
      6 C         123.7461  154.1976  147.0441 C.3     1  UNL11111    0.0110
      7 C         121.3624  153.4876  146.2781 C.3     1  UNL11111    0.0128
      8 C         122.2688  154.0198  147.4267 C.3     1  UNL11111   -0.0152
      9 C         124.5025  154.9514  148.1513 C.3     1  UNL11111   -0.0341
     10 C         124.5739  152.9083  146.9615 C.3     1  UNL11111   -0.0341
     11 C         121.6655  154.3553  145.0255 C.3     1  UNL11111   -0.0192
     12 C         125.9793  154.6832  147.8670 C.3     1  UNL11111   -0.0539
     13 C         126.0231  153.3786  147.0758 C.3     1  UNL11111   -0.0539
     14 C         119.8690  153.6972  146.6984 C.3     1  UNL11111   -0.0315
     15 C         123.1562  154.4711  144.7340 C.3     1  UNL11111    0.0064
     16 C         121.5949  151.9898  146.0258 C.ar    1  UNL11111   -0.0010
     17 C         118.8327  153.2485  145.6539 C.3     1  UNL11111   -0.0284
     18 C         121.4838  151.0521  147.0563 C.ar    1  UNL11111   -0.0514
     19 C         121.6695  149.6998  146.7774 C.ar    1  UNL11111   -0.0708
     20 C         122.0324  150.2854  144.5080 C.ar    1  UNL11111   -0.0127
     21 C         116.4446  153.2669  145.1491 C.3     1  UNL11111    0.0161
     22 C         121.9514  149.3052  145.4783 C.ar    1  UNL11111   -0.0571
     23 C         116.1955  151.8147  144.8595 C.ar    1  UNL11111    0.0248
     24 C         115.3737  150.9293  145.5330 C.ar    1  UNL11111    0.0564
     25 C         115.3892  149.6278  144.9457 C.ar    1  UNL11111   -0.0135
     26 C         116.1981  149.5700  143.8327 C.ar    1  UNL11111   -0.0275
     27 C         113.8435  150.3835  147.2219 C.3     1  UNL11111    0.0304
     28 H         117.4126  154.4719  146.4613 H       1  UNL11111    0.1338
     29 H         121.8889  155.0135  147.7076 H       1  UNL11111    0.0529
     30 H         122.1818  153.4054  148.3307 H       1  UNL11111    0.0529
     31 H         124.2462  154.5537  149.1411 H       1  UNL11111    0.0462
     32 H         124.2973  156.0272  148.1480 H       1  UNL11111    0.0462
     33 H         124.4412  152.3401  146.0385 H       1  UNL11111    0.0462
     34 H         124.3422  152.2467  147.8052 H       1  UNL11111    0.0462
     35 H         121.2840  155.3698  145.2060 H       1  UNL11111    0.0502
     36 H         121.1531  153.9826  144.1314 H       1  UNL11111    0.0502
     37 H         126.5550  154.6160  148.7957 H       1  UNL11111    0.0342
     38 H         126.4112  155.4958  147.2716 H       1  UNL11111    0.0342
     39 H         126.4442  153.5622  146.0803 H       1  UNL11111    0.0342
     40 H         126.6499  152.6253  147.5634 H       1  UNL11111    0.0342
     41 H         119.7082  154.7632  146.9135 H       1  UNL11111    0.0446
     42 H         119.6722  153.1706  147.6425 H       1  UNL11111    0.0446
     43 H         123.6000  153.5259  144.4111 H       1  UNL11111    0.0891
     44 H         123.3046  155.1769  143.9096 H       1  UNL11111    0.0891
     45 H         118.9821  153.8029  144.7219 H       1  UNL11111    0.0605
     46 H         118.9577  152.1816  145.4513 H       1  UNL11111    0.0605
     47 H         121.2408  151.3538  148.0698 H       1  UNL11111    0.1002
     48 H         121.5839  148.9615  147.5694 H       1  UNL11111    0.0906
     49 H         122.2429  150.0323  143.4731 H       1  UNL11111    0.1371
     50 H         116.6727  153.8258  144.2326 H       1  UNL11111    0.0805
     51 H         115.5098  153.7009  145.5268 H       1  UNL11111    0.0805
     52 H         122.0963  148.2612  145.2267 H       1  UNL11111    0.0980
     53 H         114.8378  148.7682  145.3016 H       1  UNL11111    0.1153
     54 H         116.3905  148.7166  143.1976 H       1  UNL11111    0.1125
     55 H         113.3320  150.8550  148.0666 H       1  UNL11111    0.1070
     56 H         114.4368  149.5506  147.6139 H       1  UNL11111    0.1070
     57 H         113.0762  150.0257  146.5266 H       1  UNL11111    0.1070
@<TRIPOS>BOND
     1     1    23   ar
     2     1    26   ar
     3     2     6    1
     4     2    15    1
     5     3    24    1
     6     3    27    1
     7     4    16   ar
     8     4    20   ar
     9     5    17    1
    10     5    21    1
    11     6     8    1
    12     6     9    1
    13     6    10    1
    14     7     8    1
    15     7    11    1
    16     7    14    1
    17     7    16    1
    18     9    12    1
    19    10    13    1
    20    11    15    1
    21    12    13    1
    22    14    17    1
    23    16    18   ar
    24    18    19   ar
    25    19    22   ar
    26    20    22   ar
    27    21    23    1
    28    23    24   ar
    29    24    25   ar
    30    25    26   ar
    31     5    28    1
    32     8    29    1
    33     8    30    1
    34     9    31    1
    35     9    32    1
    36    10    33    1
    37    10    34    1
    38    11    35    1
    39    11    36    1
    40    12    37    1
    41    12    38    1
    42    13    39    1
    43    13    40    1
    44    14    41    1
    45    14    42    1
    46    15    43    1
    47    15    44    1
    48    17    45    1
    49    17    46    1
    50    18    47    1
    51    19    48    1
    52    20    49    1
    53    21    50    1
    54    21    51    1
    55    22    52    1
    56    25    53    1
    57    26    54    1
    58    27    55    1
    59    27    56    1
    60    27    57    1
@<TRIPOS>MOLECULE
66553195
 57 60 0 0 0
SMALL
GASTEIGER

@<TRIPOS>ATOM
      1 S         116.8202  156.1221  146.7011 S.2     1  UNL11111   -0.1269
      2 O         123.8786  154.6652  145.4991 O.3     1  UNL11111   -0.4593
      3 O         119.6465  156.6178  149.2865 O.3     1  UNL11111   -0.5783
      4 N         121.4936  151.1966  144.7641 N.ar    1  UNL11111   -0.3349
      5 N         117.9485  153.2504  148.0371 N.3     1  UNL11111   -0.3404
      6 C         123.7730  154.0620  146.7929 C.3     1  UNL11111    0.0110
      7 C         121.3859  153.2318  146.1575 C.3     1  UNL11111    0.0128
      8 C         122.2984  153.9142  147.2152 C.3     1  UNL11111   -0.0152
      9 C         124.5212  154.9851  147.7707 C.3     1  UNL11111   -0.0341
     10 C         124.6297  152.7927  146.8932 C.3     1  UNL11111   -0.0341
     11 C         121.6685  153.9627  144.8090 C.3     1  UNL11111   -0.0192
     12 C         126.0030  154.7022  147.5253 C.3     1  UNL11111   -0.0539
     13 C         126.0683  153.3060  146.9125 C.3     1  UNL11111   -0.0539
     14 C         119.8724  153.4742  146.4786 C.3     1  UNL11111   -0.0315
     15 C         123.1505  153.9942  144.4738 C.3     1  UNL11111    0.0064
     16 C         121.6158  151.7168  146.0118 C.ar    1  UNL11111   -0.0010
     17 C         119.3892  153.0233  147.8640 C.3     1  UNL11111   -0.0284
     18 C         121.8871  150.8887  147.1035 C.ar    1  UNL11111   -0.0514
     19 C         122.0567  149.5185  146.9067 C.ar    1  UNL11111   -0.0708
     20 C         121.6592  149.8659  144.5976 C.ar    1  UNL11111   -0.0127
     21 C         117.6344  154.4712  148.7945 C.3     1  UNL11111    0.0161
     22 C         121.9427  148.9934  145.6289 C.ar    1  UNL11111   -0.0571
     23 C         117.8466  155.7405  148.0258 C.ar    1  UNL11111    0.0248
     24 C         118.7709  156.7422  148.2546 C.ar    1  UNL11111    0.0564
     25 C         118.6628  157.8015  147.3036 C.ar    1  UNL11111   -0.0135
     26 C         117.6448  157.5860  146.4009 C.ar    1  UNL11111   -0.0275
     27 C         120.3944  157.7922  149.5736 C.3     1  UNL11111    0.0304
     28 H         117.5625  152.4665  148.5616 H       1  UNL11111    0.1338
     29 H         121.9041  154.9297  147.3715 H       1  UNL11111    0.0529
     30 H         122.2382  153.4241  148.1926 H       1  UNL11111    0.0529
     31 H         124.2732  154.7368  148.8102 H       1  UNL11111    0.0462
     32 H         124.2977  156.0447  147.6070 H       1  UNL11111    0.0462
     33 H         124.4978  152.0907  146.0667 H       1  UNL11111    0.0462
     34 H         124.4276  152.2625  147.8317 H       1  UNL11111    0.0462
     35 H         121.3284  155.0044  144.8952 H       1  UNL11111    0.0502
     36 H         121.1037  153.5241  143.9778 H       1  UNL11111    0.0502
     37 H         126.5752  154.7640  148.4566 H       1  UNL11111    0.0342
     38 H         126.4274  155.4359  146.8306 H       1  UNL11111    0.0342
     39 H         126.4651  153.3660  145.8922 H       1  UNL11111    0.0342
     40 H         126.7240  152.6389  147.4809 H       1  UNL11111    0.0342
     41 H         119.2592  152.9778  145.7127 H       1  UNL11111    0.0446
     42 H         119.6730  154.5461  146.3729 H       1  UNL11111    0.0446
     43 H         123.5659  152.9980  144.2976 H       1  UNL11111    0.0891
     44 H         123.2998  154.5633  143.5501 H       1  UNL11111    0.0891
     45 H         119.5429  151.9441  147.9574 H       1  UNL11111    0.0605
     46 H         119.9681  153.4880  148.6691 H       1  UNL11111    0.0605
     47 H         121.9624  151.2802  148.1114 H       1  UNL11111    0.1002
     48 H         122.2701  148.8671  147.7494 H       1  UNL11111    0.0906
     49 H         121.5511  149.5119  143.5765 H       1  UNL11111    0.1371
     50 H         118.1879  154.4834  149.7414 H       1  UNL11111    0.0805
     51 H         116.5754  154.4215  149.0803 H       1  UNL11111    0.0805
     52 H         122.0649  147.9330  145.4420 H       1  UNL11111    0.0980
     53 H         119.2886  158.6826  147.2644 H       1  UNL11111    0.1153
     54 H         117.3418  158.2204  145.5797 H       1  UNL11111    0.1125
     55 H         120.9953  157.5966  150.4669 H       1  UNL11111    0.1070
     56 H         119.7354  158.6392  149.7949 H       1  UNL11111    0.1070
     57 H         121.0810  158.0323  148.7551 H       1  UNL11111    0.1070
@<TRIPOS>BOND
     1     1    23   ar
     2     1    26   ar
     3     2     6    1
     4     2    15    1
     5     3    24    1
     6     3    27    1
     7     4    16   ar
     8     4    20   ar
     9     5    17    1
    10     5    21    1
    11     6     8    1
    12     6     9    1
    13     6    10    1
    14     7     8    1
    15     7    11    1
    16     7    14    1
    17     7    16    1
    18     9    12    1
    19    10    13    1
    20    11    15    1
    21    12    13    1
    22    14    17    1
    23    16    18   ar
    24    18    19   ar
    25    19    22   ar
    26    20    22   ar
    27    21    23    1
    28    23    24   ar
    29    24    25   ar
    30    25    26   ar
    31     5    28    1
    32     8    29    1
    33     8    30    1
    34     9    31    1
    35     9    32    1
    36    10    33    1
    37    10    34    1
    38    11    35    1
    39    11    36    1
    40    12    37    1
    41    12    38    1
    42    13    39    1
    43    13    40    1
    44    14    41    1
    45    14    42    1
    46    15    43    1
    47    15    44    1
    48    17    45    1
    49    17    46    1
    50    18    47    1
    51    19    48    1
    52    20    49    1
    53    21    50    1
    54    21    51    1
    55    22    52    1
    56    25    53    1
    57    26    54    1
    58    27    55    1
    59    27    56    1
    60    27    57    1
@<TRIPOS>MOLECULE
66553195
 57 60 0 0 0
SMALL
GASTEIGER

@<TRIPOS>ATOM
      1 S         116.0455  155.8101  144.1205 S.2     1  UNL11111   -0.1269
      2 O         124.0846  154.6701  145.6572 O.3     1  UNL11111   -0.4593
      3 O         119.3511  157.2282  145.5245 O.3     1  UNL11111   -0.5783
      4 N         121.6386  151.4681  144.9194 N.ar    1  UNL11111   -0.3349
      5 N         117.5744  153.8714  146.4482 N.3     1  UNL11111   -0.3404
      6 C         123.9772  153.9672  146.8994 C.3     1  UNL11111    0.0110
      7 C         121.4796  153.4799  146.3499 C.3     1  UNL11111    0.0128
      8 C         122.5231  153.9754  147.3944 C.3     1  UNL11111   -0.0152
      9 C         124.8891  154.6980  147.8997 C.3     1  UNL11111   -0.0341
     10 C         124.6560  152.5923  146.8471 C.3     1  UNL11111   -0.0341
     11 C         121.7767  154.2355  145.0257 C.3     1  UNL11111   -0.0192
     12 C         126.3041  154.2512  147.5372 C.3     1  UNL11111   -0.0539
     13 C         126.1510  152.9067  146.8312 C.3     1  UNL11111   -0.0539
     14 C         120.0551  153.8788  146.8633 C.3     1  UNL11111   -0.0315
     15 C         123.2439  154.1667  144.6232 C.3     1  UNL11111    0.0064
     16 C         121.5313  151.9538  146.1805 C.ar    1  UNL11111   -0.0010
     17 C         118.8970  153.5225  145.9149 C.3     1  UNL11111   -0.0284
     18 C         121.4208  151.0936  147.2766 C.ar    1  UNL11111   -0.0514
     19 C         121.4445  149.7154  147.0733 C.ar    1  UNL11111   -0.0708
     20 C         121.6570  150.1277  144.7477 C.ar    1  UNL11111   -0.0127
     21 C         117.3136  155.3122  146.5548 C.3     1  UNL11111    0.0161
     22 C         121.5668  149.2190  145.7841 C.ar    1  UNL11111   -0.0571
     23 C         117.3305  156.0326  145.2376 C.ar    1  UNL11111    0.0248
     24 C         118.2731  156.9226  144.7561 C.ar    1  UNL11111    0.0564
     25 C         117.9417  157.4040  143.4540 C.ar    1  UNL11111   -0.0135
     26 C         116.7575  156.8742  142.9913 C.ar    1  UNL11111   -0.0275
     27 C         120.3048  158.0814  144.9060 C.3     1  UNL11111    0.0304
     28 H         117.4610  153.4518  147.3683 H       1  UNL11111    0.1338
     29 H         122.2739  155.0201  147.6339 H       1  UNL11111    0.0529
     30 H         122.4407  153.4297  148.3418 H       1  UNL11111    0.0529
     31 H         124.6656  154.3917  148.9293 H       1  UNL11111    0.0462
     32 H         124.7994  155.7878  147.8371 H       1  UNL11111    0.0462
     33 H         124.3952  151.9885  145.9754 H       1  UNL11111    0.0462
     34 H         124.4198  152.0113  147.7471 H       1  UNL11111    0.0462
     35 H         121.5242  155.2942  145.1683 H       1  UNL11111    0.0502
     36 H         121.1594  153.8745  144.1956 H       1  UNL11111    0.0502
     37 H         126.9345  154.1736  148.4289 H       1  UNL11111    0.0342
     38 H         126.7766  154.9754  146.8637 H       1  UNL11111    0.0342
     39 H         126.5130  152.9860  145.7994 H       1  UNL11111    0.0342
     40 H         126.7300  152.1184  147.3225 H       1  UNL11111    0.0342
     41 H         120.0499  154.9604  147.0445 H       1  UNL11111    0.0446
     42 H         119.8681  153.4127  147.8403 H       1  UNL11111    0.0446
     43 H         123.5579  153.1602  144.3349 H       1  UNL11111    0.0891
     44 H         123.4029  154.8015  143.7447 H       1  UNL11111    0.0891
     45 H         119.0373  153.9719  144.9277 H       1  UNL11111    0.0605
     46 H         118.8859  152.4398  145.7486 H       1  UNL11111    0.0605
     47 H         121.3080  151.4760  148.2855 H       1  UNL11111    0.1002
     48 H         121.3612  149.0359  147.9167 H       1  UNL11111    0.0906
     49 H         121.7473  149.7955  143.7175 H       1  UNL11111    0.1371
     50 H         118.0051  155.7796  147.2644 H       1  UNL11111    0.0805
     51 H         116.3193  155.4368  147.0033 H       1  UNL11111    0.0805
     52 H         121.5848  148.1528  145.5908 H       1  UNL11111    0.0980
     53 H         118.5259  158.1030  142.8707 H       1  UNL11111    0.1153
     54 H         116.2726  157.0630  142.0437 H       1  UNL11111    0.1125
     55 H         121.1325  158.2219  145.6079 H       1  UNL11111    0.1070
     56 H         119.8749  159.0663  144.6948 H       1  UNL11111    0.1070
     57 H         120.7130  157.6273  143.9966 H       1  UNL11111    0.1070
@<TRIPOS>BOND
     1     1    23   ar
     2     1    26   ar
     3     2     6    1
     4     2    15    1
     5     3    24    1
     6     3    27    1
     7     4    16   ar
     8     4    20   ar
     9     5    17    1
    10     5    21    1
    11     6     8    1
    12     6     9    1
    13     6    10    1
    14     7     8    1
    15     7    11    1
    16     7    14    1
    17     7    16    1
    18     9    12    1
    19    10    13    1
    20    11    15    1
    21    12    13    1
    22    14    17    1
    23    16    18   ar
    24    18    19   ar
    25    19    22   ar
    26    20    22   ar
    27    21    23    1
    28    23    24   ar
    29    24    25   ar
    30    25    26   ar
    31     5    28    1
    32     8    29    1
    33     8    30    1
    34     9    31    1
    35     9    32    1
    36    10    33    1
    37    10    34    1
    38    11    35    1
    39    11    36    1
    40    12    37    1
    41    12    38    1
    42    13    39    1
    43    13    40    1
    44    14    41    1
    45    14    42    1
    46    15    43    1
    47    15    44    1
    48    17    45    1
    49    17    46    1
    50    18    47    1
    51    19    48    1
    52    20    49    1
    53    21    50    1
    54    21    51    1
    55    22    52    1
    56    25    53    1
    57    26    54    1
    58    27    55    1
    59    27    56    1
    60    27    57    1
@<TRIPOS>MOLECULE
66553195
 57 60 0 0 0
SMALL
GASTEIGER

@<TRIPOS>ATOM
      1 S         120.7457  157.3427  151.6449 S.2     1  UNL11111   -0.1269
      2 O         123.9950  154.7886  145.2498 O.3     1  UNL11111   -0.4593
      3 O         122.6914  154.0803  150.9435 O.3     1  UNL11111   -0.5783
      4 N         121.3132  151.6999  144.8494 N.ar    1  UNL11111   -0.3349
      5 N         120.4953  155.9115  148.5560 N.3     1  UNL11111   -0.3404
      6 C         124.0585  154.0971  146.5035 C.3     1  UNL11111    0.0110
      7 C         121.4959  153.6726  146.3523 C.3     1  UNL11111    0.0128
      8 C         122.6957  154.1410  147.2170 C.3     1  UNL11111   -0.0152
      9 C         125.1235  154.8167  147.3504 C.3     1  UNL11111   -0.0341
     10 C         124.7009  152.7123  146.3570 C.3     1  UNL11111   -0.0341
     11 C         121.5938  154.4549  145.0145 C.3     1  UNL11111   -0.0192
     12 C         126.4615  154.3428  146.7873 C.3     1  UNL11111   -0.0539
     13 C         126.1814  153.0018  146.1152 C.3     1  UNL11111   -0.0539
     14 C         120.1007  153.9368  147.0195 C.3     1  UNL11111   -0.0315
     15 C         122.9710  154.3284  144.3714 C.3     1  UNL11111    0.0064
     16 C         121.5264  152.1447  146.1135 C.ar    1  UNL11111   -0.0010
     17 C         119.7223  155.3649  147.4466 C.3     1  UNL11111   -0.0284
     18 C         121.6968  151.2474  147.1731 C.ar    1  UNL11111   -0.0514
     19 C         121.6869  149.8769  146.9225 C.ar    1  UNL11111   -0.0708
     20 C         121.3098  150.3658  144.6324 C.ar    1  UNL11111   -0.0127
     21 C         120.1926  155.2878  149.8458 C.3     1  UNL11111    0.0161
     22 C         121.4942  149.4237  145.6262 C.ar    1  UNL11111   -0.0571
     23 C         121.1052  155.8364  150.9041 C.ar    1  UNL11111    0.0248
     24 C         122.2679  155.2845  151.4093 C.ar    1  UNL11111    0.0564
     25 C         122.8649  156.1134  152.4064 C.ar    1  UNL11111   -0.0135
     26 C         122.1404  157.2641  152.6266 C.ar    1  UNL11111   -0.0275
     27 C         123.9853  153.6922  151.3834 C.3     1  UNL11111    0.0304
     28 H         120.3134  156.9116  148.6403 H       1  UNL11111    0.1338
     29 H         122.5399  155.1965  147.4628 H       1  UNL11111    0.0529
     30 H         122.7435  153.6090  148.1726 H       1  UNL11111    0.0529
     31 H         125.0499  154.5211  148.4042 H       1  UNL11111    0.0462
     32 H         125.0441  155.9076  147.2928 H       1  UNL11111    0.0462
     33 H         124.3037  152.1136  145.5343 H       1  UNL11111    0.0462
     34 H         124.5949  152.1373  147.2851 H       1  UNL11111    0.0462
     35 H         121.4297  155.5215  145.2100 H       1  UNL11111    0.0502
     36 H         120.8183  154.1442  144.3043 H       1  UNL11111    0.0502
     37 H         127.2127  154.2525  147.5786 H       1  UNL11111    0.0342
     38 H         126.8456  155.0577  146.0507 H       1  UNL11111    0.0342
     39 H         126.3847  153.0758  145.0404 H       1  UNL11111    0.0342
     40 H         126.8149  152.2036  146.5148 H       1  UNL11111    0.0342
     41 H         119.9722  153.2742  147.8843 H       1  UNL11111    0.0446
     42 H         119.3255  153.6118  146.3088 H       1  UNL11111    0.0446
     43 H         123.1937  153.3124  144.0353 H       1  UNL11111    0.0891
     44 H         123.0075  154.9625  143.4789 H       1  UNL11111    0.0891
     45 H         119.8280  156.0382  146.5901 H       1  UNL11111    0.0605
     46 H         118.6555  155.3872  147.7037 H       1  UNL11111    0.0605
     47 H         121.8279  151.5978  148.1919 H       1  UNL11111    0.1002
     48 H         121.8234  149.1712  147.7368 H       1  UNL11111    0.0906
     49 H         121.1471  150.0669  143.6010 H       1  UNL11111    0.1371
     50 H         120.3282  154.2023  149.8004 H       1  UNL11111    0.0805
     51 H         119.1456  155.4674  150.1200 H       1  UNL11111    0.0805
     52 H         121.4805  148.3647  145.3967 H       1  UNL11111    0.0980
     53 H         123.7762  155.8946  152.9465 H       1  UNL11111    0.1153
     54 H         122.3625  158.0633  153.3203 H       1  UNL11111    0.1125
     55 H         124.2390  152.7511  150.8856 H       1  UNL11111    0.1070
     56 H         123.9961  153.5120  152.4634 H       1  UNL11111    0.1070
     57 H         124.7415  154.4326  151.1009 H       1  UNL11111    0.1070
@<TRIPOS>BOND
     1     1    23   ar
     2     1    26   ar
     3     2     6    1
     4     2    15    1
     5     3    24    1
     6     3    27    1
     7     4    16   ar
     8     4    20   ar
     9     5    17    1
    10     5    21    1
    11     6     8    1
    12     6     9    1
    13     6    10    1
    14     7     8    1
    15     7    11    1
    16     7    14    1
    17     7    16    1
    18     9    12    1
    19    10    13    1
    20    11    15    1
    21    12    13    1
    22    14    17    1
    23    16    18   ar
    24    18    19   ar
    25    19    22   ar
    26    20    22   ar
    27    21    23    1
    28    23    24   ar
    29    24    25   ar
    30    25    26   ar
    31     5    28    1
    32     8    29    1
    33     8    30    1
    34     9    31    1
    35     9    32    1
    36    10    33    1
    37    10    34    1
    38    11    35    1
    39    11    36    1
    40    12    37    1
    41    12    38    1
    42    13    39    1
    43    13    40    1
    44    14    41    1
    45    14    42    1
    46    15    43    1
    47    15    44    1
    48    17    45    1
    49    17    46    1
    50    18    47    1
    51    19    48    1
    52    20    49    1
    53    21    50    1
    54    21    51    1
    55    22    52    1
    56    25    53    1
    57    26    54    1
    58    27    55    1
    59    27    56    1
    60    27    57    1
@<TRIPOS>MOLECULE
66553195
 57 60 0 0 0
SMALL
GASTEIGER

@<TRIPOS>ATOM
      1 S         118.4978  150.4321  151.1703 S.2     1  UNL11111   -0.1269
      2 O         123.9909  155.0108  145.7811 O.3     1  UNL11111   -0.4593
      3 O         116.9643  150.8401  147.6489 O.3     1  UNL11111   -0.5783
      4 N         122.1314  151.3183  147.0144 N.ar    1  UNL11111   -0.3349
      5 N         118.2401  153.3842  148.5434 N.3     1  UNL11111   -0.3404
      6 C         123.9554  154.2200  146.9767 C.3     1  UNL11111    0.0110
      7 C         121.4728  153.6242  146.4238 C.3     1  UNL11111    0.0128
      8 C         122.5132  154.0660  147.4959 C.3     1  UNL11111   -0.0152
      9 C         124.8209  154.9562  148.0150 C.3     1  UNL11111   -0.0341
     10 C         124.7582  152.9230  146.8120 C.3     1  UNL11111   -0.0341
     11 C         121.6963  154.5433  145.1920 C.3     1  UNL11111   -0.0192
     12 C         126.2642  154.6634  147.6071 C.3     1  UNL11111   -0.0539
     13 C         126.2153  153.3801  146.7825 C.3     1  UNL11111   -0.0539
     14 C         120.0206  153.8772  146.9445 C.3     1  UNL11111   -0.0315
     15 C         123.1466  154.5404  144.7383 C.3     1  UNL11111    0.0064
     16 C         121.5813  152.1289  146.0765 C.ar    1  UNL11111   -0.0010
     17 C         119.6671  153.1810  148.2680 C.3     1  UNL11111   -0.0284
     18 C         121.0481  151.5980  144.8993 C.ar    1  UNL11111   -0.0514
     19 C         121.1190  150.2247  144.6681 C.ar    1  UNL11111   -0.0708
     20 C         122.1867  149.9903  146.7699 C.ar    1  UNL11111   -0.0127
     21 C         117.8252  152.7609  149.8080 C.3     1  UNL11111    0.0161
     22 C         121.7021  149.4016  145.6191 C.ar    1  UNL11111   -0.0571
     23 C         117.8781  151.2560  149.7958 C.ar    1  UNL11111    0.0248
     24 C         117.4847  150.3662  148.8117 C.ar    1  UNL11111    0.0564
     25 C         117.6902  149.0076  149.1974 C.ar    1  UNL11111   -0.0135
     26 C         118.2389  148.9041  150.4561 C.ar    1  UNL11111   -0.0275
     27 C         116.9768  149.9077  146.5760 C.3     1  UNL11111    0.0304
     28 H         117.6956  152.9372  147.8019 H       1  UNL11111    0.1338
     29 H         122.1957  155.0541  147.8616 H       1  UNL11111    0.0529
     30 H         122.5009  153.4073  148.3729 H       1  UNL11111    0.0529
     31 H         124.6426  154.5609  149.0229 H       1  UNL11111    0.0462
     32 H         124.6353  156.0355  148.0309 H       1  UNL11111    0.0462
     33 H         124.5265  152.3606  145.9046 H       1  UNL11111    0.0462
     34 H         124.6098  152.2635  147.6756 H       1  UNL11111    0.0462
     35 H         121.4401  155.5740  145.4756 H       1  UNL11111    0.0502
     36 H         121.0403  154.2906  144.3534 H       1  UNL11111    0.0502
     37 H         126.9073  154.5567  148.4867 H       1  UNL11111    0.0342
     38 H         126.6695  155.4824  147.0020 H       1  UNL11111    0.0342
     39 H         126.5285  153.5880  145.7527 H       1  UNL11111    0.0342
     40 H         126.8849  152.6112  147.1806 H       1  UNL11111    0.0342
     41 H         119.3038  153.5674  146.1704 H       1  UNL11111    0.0446
     42 H         119.8680  154.9575  147.0787 H       1  UNL11111    0.0446
     43 H         123.4729  153.5565  144.3886 H       1  UNL11111    0.0891
     44 H         123.2628  155.2291  143.8948 H       1  UNL11111    0.0891
     45 H         119.8905  152.1131  148.2057 H       1  UNL11111    0.0605
     46 H         120.2611  153.6106  149.0817 H       1  UNL11111    0.0605
     47 H         120.5586  152.2238  144.1620 H       1  UNL11111    0.1002
     48 H         120.7127  149.8032  143.7530 H       1  UNL11111    0.0906
     49 H         122.6458  149.3958  147.5545 H       1  UNL11111    0.1371
     50 H         116.7868  153.0577  150.0008 H       1  UNL11111    0.0805
     51 H         118.4176  153.1810  150.6300 H       1  UNL11111    0.0805
     52 H         121.7718  148.3304  145.4713 H       1  UNL11111    0.0980
     53 H         117.4498  148.1392  148.5994 H       1  UNL11111    0.1153
     54 H         118.4969  148.0024  150.9942 H       1  UNL11111    0.1125
     55 H         116.6657  150.4363  145.6698 H       1  UNL11111    0.1070
     56 H         116.2619  149.0974  146.7518 H       1  UNL11111    0.1070
     57 H         117.9837  149.5120  146.4017 H       1  UNL11111    0.1070
@<TRIPOS>BOND
     1     1    23   ar
     2     1    26   ar
     3     2     6    1
     4     2    15    1
     5     3    24    1
     6     3    27    1
     7     4    16   ar
     8     4    20   ar
     9     5    17    1
    10     5    21    1
    11     6     8    1
    12     6     9    1
    13     6    10    1
    14     7     8    1
    15     7    11    1
    16     7    14    1
    17     7    16    1
    18     9    12    1
    19    10    13    1
    20    11    15    1
    21    12    13    1
    22    14    17    1
    23    16    18   ar
    24    18    19   ar
    25    19    22   ar
    26    20    22   ar
    27    21    23    1
    28    23    24   ar
    29    24    25   ar
    30    25    26   ar
    31     5    28    1
    32     8    29    1
    33     8    30    1
    34     9    31    1
    35     9    32    1
    36    10    33    1
    37    10    34    1
    38    11    35    1
    39    11    36    1
    40    12    37    1
    41    12    38    1
    42    13    39    1
    43    13    40    1
    44    14    41    1
    45    14    42    1
    46    15    43    1
    47    15    44    1
    48    17    45    1
    49    17    46    1
    50    18    47    1
    51    19    48    1
    52    20    49    1
    53    21    50    1
    54    21    51    1
    55    22    52    1
    56    25    53    1
    57    26    54    1
    58    27    55    1
    59    27    56    1
    60    27    57    1
@<TRIPOS>MOLECULE
66553195
 57 60 0 0 0
SMALL
GASTEIGER

@<TRIPOS>ATOM
      1 S         116.3354  150.8943  147.1793 S.2     1  UNL11111   -0.1269
      2 O         123.9150  154.9826  145.7420 O.3     1  UNL11111   -0.4593
      3 O         115.3043  152.3537  143.7590 O.3     1  UNL11111   -0.5783
      4 N         121.5800  151.7843  144.8091 N.ar    1  UNL11111   -0.3349
      5 N         117.5791  153.8343  147.0147 N.3     1  UNL11111   -0.3404
      6 C         123.9139  154.1440  146.9019 C.3     1  UNL11111    0.0110
      7 C         121.4025  153.6233  146.4571 C.3     1  UNL11111    0.0128
      8 C         122.4970  154.0380  147.4834 C.3     1  UNL11111   -0.0152
      9 C         124.8628  154.7978  147.9211 C.3     1  UNL11111   -0.0341
     10 C         124.6333  152.8115  146.6557 C.3     1  UNL11111   -0.0341
     11 C         121.5833  154.5284  145.2093 C.3     1  UNL11111   -0.0192
     12 C         126.2656  154.4515  147.4274 C.3     1  UNL11111   -0.0539
     13 C         126.1143  153.1824  146.5934 C.3     1  UNL11111   -0.0539
     14 C         120.0086  153.9104  147.1042 C.3     1  UNL11111   -0.0315
     15 C         123.0237  154.5643  144.7122 C.3     1  UNL11111    0.0064
     16 C         121.4910  152.1269  146.1182 C.ar    1  UNL11111   -0.0010
     17 C         118.7908  153.5908  146.2225 C.3     1  UNL11111   -0.0284
     18 C         121.4334  151.1504  147.1168 C.ar    1  UNL11111   -0.0514
     19 C         121.4872  149.8036  146.7651 C.ar    1  UNL11111   -0.0708
     20 C         121.6302  150.4708  144.4940 C.ar    1  UNL11111   -0.0127
     21 C         116.3494  153.5513  146.2633 C.3     1  UNL11111    0.0161
     22 C         121.5902  149.4531  145.4275 C.ar    1  UNL11111   -0.0571
     23 C         116.1032  152.0960  145.9718 C.ar    1  UNL11111    0.0248
     24 C         115.6068  151.5424  144.8058 C.ar    1  UNL11111    0.0564
     25 C         115.4997  150.1216  144.8813 C.ar    1  UNL11111   -0.0135
     26 C         115.8720  149.6411  146.1169 C.ar    1  UNL11111   -0.0275
     27 C         114.4326  151.7737  142.7973 C.3     1  UNL11111    0.0304
     28 H         117.5591  154.8132  147.2953 H       1  UNL11111    0.1338
     29 H         122.2303  155.0377  147.8581 H       1  UNL11111    0.0529
     30 H         122.4957  153.3840  148.3636 H       1  UNL11111    0.0529
     31 H         124.7160  154.3722  148.9217 H       1  UNL11111    0.0462
     32 H         124.7323  155.8834  147.9859 H       1  UNL11111    0.0462
     33 H         124.3409  152.2995  145.7367 H       1  UNL11111    0.0462
     34 H         124.4695  152.1244  147.4951 H       1  UNL11111    0.0462
     35 H         121.3025  155.5552  145.4815 H       1  UNL11111    0.0502
     36 H         120.9225  154.2310  144.3870 H       1  UNL11111    0.0502
     37 H         126.9558  154.3090  148.2652 H       1  UNL11111    0.0342
     38 H         126.6665  155.2611  146.8066 H       1  UNL11111    0.0342
     39 H         126.4151  153.3804  145.5580 H       1  UNL11111    0.0342
     40 H         126.7445  152.3697  146.9685 H       1  UNL11111    0.0342
     41 H         119.9601  154.9718  147.3872 H       1  UNL11111    0.0446
     42 H         119.9211  153.3507  148.0460 H       1  UNL11111    0.0446
     43 H         123.3524  153.6103  144.2922 H       1  UNL11111    0.0891
     44 H         123.1033  155.2986  143.9032 H       1  UNL11111    0.0891
     45 H         118.7883  154.2312  145.3340 H       1  UNL11111    0.0605
     46 H         118.8282  152.5480  145.8948 H       1  UNL11111    0.0605
     47 H         121.3324  151.4193  148.1632 H       1  UNL11111    0.1002
     48 H         121.4393  149.0362  147.5323 H       1  UNL11111    0.0906
     49 H         121.7043  150.2534  143.4325 H       1  UNL11111    0.1371
     50 H         116.3433  154.1406  145.3382 H       1  UNL11111    0.0805
     51 H         115.5021  153.9139  146.8591 H       1  UNL11111    0.0805
     52 H         121.6305  148.4149  145.1199 H       1  UNL11111    0.0980
     53 H         115.1679  149.4707  144.0839 H       1  UNL11111    0.1153
     54 H         115.8851  148.6135  146.4519 H       1  UNL11111    0.1125
     55 H         114.1582  152.5538  142.0806 H       1  UNL11111    0.1070
     56 H         113.5098  151.4109  143.2641 H       1  UNL11111    0.1070
     57 H         114.9325  150.9725  142.2436 H       1  UNL11111    0.1070
@<TRIPOS>BOND
     1     1    23   ar
     2     1    26   ar
     3     2     6    1
     4     2    15    1
     5     3    24    1
     6     3    27    1
     7     4    16   ar
     8     4    20   ar
     9     5    17    1
    10     5    21    1
    11     6     8    1
    12     6     9    1
    13     6    10    1
    14     7     8    1
    15     7    11    1
    16     7    14    1
    17     7    16    1
    18     9    12    1
    19    10    13    1
    20    11    15    1
    21    12    13    1
    22    14    17    1
    23    16    18   ar
    24    18    19   ar
    25    19    22   ar
    26    20    22   ar
    27    21    23    1
    28    23    24   ar
    29    24    25   ar
    30    25    26   ar
    31     5    28    1
    32     8    29    1
    33     8    30    1
    34     9    31    1
    35     9    32    1
    36    10    33    1
    37    10    34    1
    38    11    35    1
    39    11    36    1
    40    12    37    1
    41    12    38    1
    42    13    39    1
    43    13    40    1
    44    14    41    1
    45    14    42    1
    46    15    43    1
    47    15    44    1
    48    17    45    1
    49    17    46    1
    50    18    47    1
    51    19    48    1
    52    20    49    1
    53    21    50    1
    54    21    51    1
    55    22    52    1
    56    25    53    1
    57    26    54    1
    58    27    55    1
    59    27    56    1
    60    27    57    1
@<TRIPOS>MOLECULE
66553195
 57 60 0 0 0
SMALL
GASTEIGER

@<TRIPOS>ATOM
      1 S         115.7842  150.9652  145.7835 S.2     1  UNL11111   -0.1269
      2 O         123.8960  154.9878  145.9812 O.3     1  UNL11111   -0.4593
      3 O         117.2741  151.1003  149.3409 O.3     1  UNL11111   -0.5783
      4 N         121.6349  151.2517  147.2596 N.ar    1  UNL11111   -0.3349
      5 N         117.4752  153.6652  145.9901 N.3     1  UNL11111   -0.3404
      6 C         123.7382  154.1981  147.1673 C.3     1  UNL11111    0.0110
      7 C         121.3682  153.5115  146.3365 C.3     1  UNL11111    0.0128
      8 C         122.2496  154.0405  147.5114 C.3     1  UNL11111   -0.0152
      9 C         124.4767  154.9419  148.2930 C.3     1  UNL11111   -0.0341
     10 C         124.5543  152.9007  147.1000 C.3     1  UNL11111   -0.0341
     11 C         121.6995  154.4054  145.1127 C.3     1  UNL11111   -0.0192
     12 C         125.9571  154.6547  148.0473 C.3     1  UNL11111   -0.0539
     13 C         126.0052  153.3564  147.2463 C.3     1  UNL11111   -0.0539
     14 C         119.8695  153.7160  146.7483 C.3     1  UNL11111   -0.0315
     15 C         123.1966  154.4975  144.8452 C.3     1  UNL11111    0.0064
     16 C         121.5977  152.0068  146.1314 C.ar    1  UNL11111   -0.0010
     17 C         118.8389  153.1879  145.7375 C.3     1  UNL11111   -0.0284
     18 C         121.6954  151.4125  144.8718 C.ar    1  UNL11111   -0.0514
     19 C         121.8594  150.0311  144.7732 C.ar    1  UNL11111   -0.0708
     20 C         121.7912  149.9154  147.1383 C.ar    1  UNL11111   -0.0127
     21 C         116.8608  153.1280  147.2125 C.3     1  UNL11111    0.0161
     22 C         121.9105  149.2644  145.9270 C.ar    1  UNL11111   -0.0571
     23 C         116.5478  151.6562  147.1609 C.ar    1  UNL11111    0.0248
     24 C         116.7381  150.7137  148.1542 C.ar    1  UNL11111    0.0564
     25 C         116.3205  149.4100  147.7504 C.ar    1  UNL11111   -0.0135
     26 C         115.7920  149.4065  146.4784 C.ar    1  UNL11111   -0.0275
     27 C         117.2552  150.1084  150.3577 C.3     1  UNL11111    0.0304
     28 H         116.8827  153.3838  145.2086 H       1  UNL11111    0.1338
     29 H         121.8728  155.0391  147.7791 H       1  UNL11111    0.0529
     30 H         122.1293  153.4289  148.4146 H       1  UNL11111    0.0529
     31 H         124.1900  154.5478  149.2759 H       1  UNL11111    0.0462
     32 H         124.2856  156.0203  148.2847 H       1  UNL11111    0.0462
     33 H         124.4356  152.3375  146.1719 H       1  UNL11111    0.0462
     34 H         124.2987  152.2398  147.9372 H       1  UNL11111    0.0462
     35 H         121.3396  155.4228  145.3212 H       1  UNL11111    0.0502
     36 H         121.1846  154.0834  144.2027 H       1  UNL11111    0.0502
     37 H         126.5050  154.5709  148.9914 H       1  UNL11111    0.0342
     38 H         126.4176  155.4661  147.4721 H       1  UNL11111    0.0342
     39 H         126.4468  153.5445  146.2606 H       1  UNL11111    0.0342
     40 H         126.6159  152.5935  147.7392 H       1  UNL11111    0.0342
     41 H         119.6903  154.7882  146.9089 H       1  UNL11111    0.0446
     42 H         119.6959  153.2302  147.7178 H       1  UNL11111    0.0446
     43 H         123.6219  153.5437  144.5212 H       1  UNL11111    0.0891
     44 H         123.3715  155.2071  144.0293 H       1  UNL11111    0.0891
     45 H         119.1023  153.5412  144.7358 H       1  UNL11111    0.0605
     46 H         118.8622  152.0940  145.6935 H       1  UNL11111    0.0605
     47 H         121.6378  151.9887  143.9562 H       1  UNL11111    0.1002
     48 H         121.9390  149.5589  143.7980 H       1  UNL11111    0.0906
     49 H         121.8170  149.3671  148.0752 H       1  UNL11111    0.1371
     50 H         115.9148  153.6627  147.3668 H       1  UNL11111    0.0805
     51 H         117.4749  153.3712  148.0859 H       1  UNL11111    0.0805
     52 H         122.0336  148.1888  145.8833 H       1  UNL11111    0.0980
     53 H         116.3902  148.5115  148.3480 H       1  UNL11111    0.1153
     54 H         115.3977  148.5636  145.9282 H       1  UNL11111    0.1125
     55 H         117.6414  150.5616  151.2758 H       1  UNL11111    0.1070
     56 H         117.9070  149.2671  150.1002 H       1  UNL11111    0.1070
     57 H         116.2343  149.7659  150.5605 H       1  UNL11111    0.1070
@<TRIPOS>BOND
     1     1    23   ar
     2     1    26   ar
     3     2     6    1
     4     2    15    1
     5     3    24    1
     6     3    27    1
     7     4    16   ar
     8     4    20   ar
     9     5    17    1
    10     5    21    1
    11     6     8    1
    12     6     9    1
    13     6    10    1
    14     7     8    1
    15     7    11    1
    16     7    14    1
    17     7    16    1
    18     9    12    1
    19    10    13    1
    20    11    15    1
    21    12    13    1
    22    14    17    1
    23    16    18   ar
    24    18    19   ar
    25    19    22   ar
    26    20    22   ar
    27    21    23    1
    28    23    24   ar
    29    24    25   ar
    30    25    26   ar
    31     5    28    1
    32     8    29    1
    33     8    30    1
    34     9    31    1
    35     9    32    1
    36    10    33    1
    37    10    34    1
    38    11    35    1
    39    11    36    1
    40    12    37    1
    41    12    38    1
    42    13    39    1
    43    13    40    1
    44    14    41    1
    45    14    42    1
    46    15    43    1
    47    15    44    1
    48    17    45    1
    49    17    46    1
    50    18    47    1
    51    19    48    1
    52    20    49    1
    53    21    50    1
    54    21    51    1
    55    22    52    1
    56    25    53    1
    57    26    54    1
    58    27    55    1
    59    27    56    1
    60    27    57    1
@<TRIPOS>MOLECULE
66553195
 57 60 0 0 0
SMALL
GASTEIGER

@<TRIPOS>ATOM
      1 S         116.9462  149.0685  145.6762 S.2     1  UNL11111   -0.1269
      2 O         123.9279  155.0666  145.9085 O.3     1  UNL11111   -0.4593
      3 O         118.9979  149.8285  142.4942 O.3     1  UNL11111   -0.5783
      4 N         122.1617  151.6039  144.9374 N.ar    1  UNL11111   -0.3349
      5 N         118.7380  151.9000  145.6931 N.3     1  UNL11111   -0.3404
      6 C         123.8498  154.2846  147.1046 C.3     1  UNL11111    0.0110
      7 C         121.4718  153.5010  146.3765 C.3     1  UNL11111    0.0128
      8 C         122.3826  154.0719  147.5052 C.3     1  UNL11111   -0.0152
      9 C         124.5930  155.0745  148.1959 C.3     1  UNL11111   -0.0341
     10 C         124.7140  153.0189  147.0324 C.3     1  UNL11111   -0.0341
     11 C         121.7481  154.3400  145.0984 C.3     1  UNL11111   -0.0192
     12 C         126.0742  154.8470  147.9021 C.3     1  UNL11111   -0.0539
     13 C         126.1505  153.5293  147.1361 C.3     1  UNL11111   -0.0539
     14 C         119.9790  153.7254  146.8177 C.3     1  UNL11111   -0.0315
     15 C         123.2329  154.5070  144.7977 C.3     1  UNL11111    0.0064
     16 C         121.7530  152.0044  146.1677 C.ar    1  UNL11111   -0.0010
     17 C         118.8756  153.3414  145.8161 C.3     1  UNL11111   -0.0284
     18 C         121.5817  151.0834  147.2066 C.ar    1  UNL11111   -0.0514
     19 C         121.8095  149.7296  146.9702 C.ar    1  UNL11111   -0.0708
     20 C         122.3600  150.2837  144.7309 C.ar    1  UNL11111   -0.0127
     21 C         117.7967  151.5154  144.6444 C.3     1  UNL11111    0.0161
     22 C         122.2012  149.3173  145.7057 C.ar    1  UNL11111   -0.0571
     23 C         117.7656  150.0205  144.5041 C.ar    1  UNL11111    0.0248
     24 C         118.3302  149.2349  143.5169 C.ar    1  UNL11111    0.0564
     25 C         118.0907  147.8445  143.7335 C.ar    1  UNL11111   -0.0135
     26 C         117.3540  147.6169  144.8749 C.ar    1  UNL11111   -0.0275
     27 C         119.7445  148.9428  141.6736 C.3     1  UNL11111    0.0304
     28 H         118.4483  151.4813  146.5737 H       1  UNL11111    0.1338
     29 H         121.9831  155.0596  147.7800 H       1  UNL11111    0.0529
     30 H         122.3220  153.4652  148.4170 H       1  UNL11111    0.0529
     31 H         124.3571  154.6817  149.1928 H       1  UNL11111    0.0462
     32 H         124.3557  156.1437  148.1815 H       1  UNL11111    0.0462
     33 H         124.5963  152.4375  146.1161 H       1  UNL11111    0.0462
     34 H         124.5032  152.3594  147.8833 H       1  UNL11111    0.0462
     35 H         121.3305  155.3454  145.2472 H       1  UNL11111    0.0502
     36 H         121.2481  153.9195  144.2182 H       1  UNL11111    0.0502
     37 H         126.6612  154.8165  148.8255 H       1  UNL11111    0.0342
     38 H         126.4741  155.6606  147.2860 H       1  UNL11111    0.0342
     39 H         126.5667  153.7040  146.1371 H       1  UNL11111    0.0342
     40 H         126.7963  152.8017  147.6378 H       1  UNL11111    0.0342
     41 H         119.8437  154.7953  147.0317 H       1  UNL11111    0.0446
     42 H         119.7862  153.2187  147.7732 H       1  UNL11111    0.0446
     43 H         123.7124  153.5775  144.4811 H       1  UNL11111    0.0891
     44 H         123.3492  155.2074  143.9634 H       1  UNL11111    0.0891
     45 H         117.9270  153.7603  146.1742 H       1  UNL11111    0.0605
     46 H         119.0778  153.8018  144.8436 H       1  UNL11111    0.0605
     47 H         121.2517  151.4009  148.1894 H       1  UNL11111    0.1002
     48 H         121.6647  149.0034  147.7641 H       1  UNL11111    0.0906
     49 H         122.6596  150.0170  143.7223 H       1  UNL11111    0.1371
     50 H         118.0934  151.9652  143.6894 H       1  UNL11111    0.0805
     51 H         116.7909  151.8875  144.8764 H       1  UNL11111    0.0805
     52 H         122.3706  148.2710  145.4830 H       1  UNL11111    0.0980
     53 H         118.4273  147.0401  143.0939 H       1  UNL11111    0.1153
     54 H         117.0301  146.6661  145.2747 H       1  UNL11111    0.1125
     55 H         120.3018  149.5455  140.9499 H       1  UNL11111    0.1070
     56 H         119.0831  148.2750  141.1118 H       1  UNL11111    0.1070
     57 H         120.4714  148.3714  142.2612 H       1  UNL11111    0.1070
@<TRIPOS>BOND
     1     1    23   ar
     2     1    26   ar
     3     2     6    1
     4     2    15    1
     5     3    24    1
     6     3    27    1
     7     4    16   ar
     8     4    20   ar
     9     5    17    1
    10     5    21    1
    11     6     8    1
    12     6     9    1
    13     6    10    1
    14     7     8    1
    15     7    11    1
    16     7    14    1
    17     7    16    1
    18     9    12    1
    19    10    13    1
    20    11    15    1
    21    12    13    1
    22    14    17    1
    23    16    18   ar
    24    18    19   ar
    25    19    22   ar
    26    20    22   ar
    27    21    23    1
    28    23    24   ar
    29    24    25   ar
    30    25    26   ar
    31     5    28    1
    32     8    29    1
    33     8    30    1
    34     9    31    1
    35     9    32    1
    36    10    33    1
    37    10    34    1
    38    11    35    1
    39    11    36    1
    40    12    37    1
    41    12    38    1
    42    13    39    1
    43    13    40    1
    44    14    41    1
    45    14    42    1
    46    15    43    1
    47    15    44    1
    48    17    45    1
    49    17    46    1
    50    18    47    1
    51    19    48    1
    52    20    49    1
    53    21    50    1
    54    21    51    1
    55    22    52    1
    56    25    53    1
    57    26    54    1
    58    27    55    1
    59    27    56    1
    60    27    57    1
@<TRIPOS>MOLECULE
66553195
 57 60 0 0 0
SMALL
GASTEIGER

@<TRIPOS>ATOM
      1 S         120.7514  159.4640  144.7445 S.2     1  UNL11111   -0.1269
      2 O         124.3678  154.4850  145.6589 O.3     1  UNL11111   -0.4593
      3 O         117.2046  157.9720  144.4372 O.3     1  UNL11111   -0.5783
      4 N         121.6237  151.4820  144.9489 N.ar    1  UNL11111   -0.3349
      5 N         119.8242  156.2475  145.9738 N.3     1  UNL11111   -0.3404
      6 C         124.1578  153.9051  146.9508 C.3     1  UNL11111    0.0110
      7 C         121.6545  153.5472  146.3341 C.3     1  UNL11111    0.0128
      8 C         122.6857  154.0460  147.3837 C.3     1  UNL11111   -0.0152
      9 C         125.0739  154.6636  147.9276 C.3     1  UNL11111   -0.0341
     10 C         124.7547  152.4948  147.0403 C.3     1  UNL11111   -0.0341
     11 C         122.0442  154.2194  144.9913 C.3     1  UNL11111   -0.0192
     12 C         126.4723  154.1078  147.6674 C.3     1  UNL11111   -0.0539
     13 C         126.2659  152.7194  147.0687 C.3     1  UNL11111   -0.0539
     14 C         120.1828  153.9033  146.7445 C.3     1  UNL11111   -0.0315
     15 C         123.5083  153.9853  144.6359 C.3     1  UNL11111    0.0064
     16 C         121.6566  152.0043  146.2006 C.ar    1  UNL11111   -0.0010
     17 C         119.8224  155.3490  147.1189 C.3     1  UNL11111   -0.0284
     18 C         121.6201  151.1725  147.3247 C.ar    1  UNL11111   -0.0514
     19 C         121.5895  149.7891  147.1581 C.ar    1  UNL11111   -0.0708
     20 C         121.5955  150.1376  144.8131 C.ar    1  UNL11111   -0.0127
     21 C         119.4440  157.6079  146.3608 C.3     1  UNL11111    0.0161
     22 C         121.5812  149.2575  145.8776 C.ar    1  UNL11111   -0.0571
     23 C         119.3955  158.4956  145.1525 C.ar    1  UNL11111    0.0248
     24 C         118.3563  158.6705  144.2580 C.ar    1  UNL11111    0.0564
     25 C         118.6830  159.6089  143.2333 C.ar    1  UNL11111   -0.0135
     26 C         119.9560  160.1146  143.3809 C.ar    1  UNL11111   -0.0275
     27 C         116.2077  158.2017  143.4510 C.3     1  UNL11111    0.0304
     28 H         119.1599  155.9195  145.2717 H       1  UNL11111    0.1338
     29 H         122.5164  155.1207  147.5309 H       1  UNL11111    0.0529
     30 H         122.5270  153.5843  148.3646 H       1  UNL11111    0.0529
     31 H         124.7908  154.4594  148.9678 H       1  UNL11111    0.0462
     32 H         125.0536  155.7475  147.7715 H       1  UNL11111    0.0462
     33 H         124.4954  151.8401  146.2053 H       1  UNL11111    0.0462
     34 H         124.4483  152.0039  147.9720 H       1  UNL11111    0.0462
     35 H         121.9241  155.3036  145.0784 H       1  UNL11111    0.0502
     36 H         121.3971  153.8933  144.1686 H       1  UNL11111    0.0502
     37 H         127.0607  154.0703  148.5899 H       1  UNL11111    0.0342
     38 H         127.0146  154.7438  146.9584 H       1  UNL11111    0.0342
     39 H         126.6755  152.6886  146.0522 H       1  UNL11111    0.0342
     40 H         126.7735  151.9435  147.6505 H       1  UNL11111    0.0342
     41 H         119.9112  153.3011  147.6234 H       1  UNL11111    0.0446
     42 H         119.5005  153.5693  145.9486 H       1  UNL11111    0.0446
     43 H         123.7377  152.9362  144.4315 H       1  UNL11111    0.0891
     44 H         123.7473  154.5376  143.7207 H       1  UNL11111    0.0891
     45 H         118.8141  155.3324  147.5529 H       1  UNL11111    0.0605
     46 H         120.4911  155.7158  147.9039 H       1  UNL11111    0.0605
     47 H         121.6066  151.5803  148.3295 H       1  UNL11111    0.1002
     48 H         121.5670  149.1340  148.0243 H       1  UNL11111    0.0906
     49 H         121.5823  149.7779  143.7884 H       1  UNL11111    0.1371
     50 H         120.1585  158.0030  147.0937 H       1  UNL11111    0.0805
     51 H         118.4582  157.6070  146.8429 H       1  UNL11111    0.0805
     52 H         121.5572  148.1868  145.7126 H       1  UNL11111    0.0980
     53 H         118.0353  159.9095  142.4210 H       1  UNL11111    0.1153
     54 H         120.4601  160.8349  142.7516 H       1  UNL11111    0.1125
     55 H         115.3424  157.5791  143.6983 H       1  UNL11111    0.1070
     56 H         116.5580  157.9054  142.4564 H       1  UNL11111    0.1070
     57 H         115.8793  159.2465  143.4569 H       1  UNL11111    0.1070
@<TRIPOS>BOND
     1     1    23   ar
     2     1    26   ar
     3     2     6    1
     4     2    15    1
     5     3    24    1
     6     3    27    1
     7     4    16   ar
     8     4    20   ar
     9     5    17    1
    10     5    21    1
    11     6     8    1
    12     6     9    1
    13     6    10    1
    14     7     8    1
    15     7    11    1
    16     7    14    1
    17     7    16    1
    18     9    12    1
    19    10    13    1
    20    11    15    1
    21    12    13    1
    22    14    17    1
    23    16    18   ar
    24    18    19   ar
    25    19    22   ar
    26    20    22   ar
    27    21    23    1
    28    23    24   ar
    29    24    25   ar
    30    25    26   ar
    31     5    28    1
    32     8    29    1
    33     8    30    1
    34     9    31    1
    35     9    32    1
    36    10    33    1
    37    10    34    1
    38    11    35    1
    39    11    36    1
    40    12    37    1
    41    12    38    1
    42    13    39    1
    43    13    40    1
    44    14    41    1
    45    14    42    1
    46    15    43    1
    47    15    44    1
    48    17    45    1
    49    17    46    1
    50    18    47    1
    51    19    48    1
    52    20    49    1
    53    21    50    1
    54    21    51    1
    55    22    52    1
    56    25    53    1
    57    26    54    1
    58    27    55    1
    59    27    56    1
    60    27    57    1
@<TRIPOS>MOLECULE
66553195
 57 60 0 0 0
SMALL
GASTEIGER

@<TRIPOS>ATOM
      1 S         119.2846  149.9988  149.5174 S.2     1  UNL11111   -0.1269
      2 O         124.0671  154.9932  145.7701 O.3     1  UNL11111   -0.4593
      3 O         120.4427  151.9388  152.6431 O.3     1  UNL11111   -0.5783
      4 N         121.3222  151.9539  144.5071 N.ar    1  UNL11111   -0.3349
      5 N         119.8751  153.3659  149.0627 N.3     1  UNL11111   -0.3404
      6 C         123.9346  154.1671  146.9325 C.3     1  UNL11111    0.0110
      7 C         121.4599  153.6922  146.2560 C.3     1  UNL11111    0.0128
      8 C         122.4627  154.0733  147.3823 C.3     1  UNL11111   -0.0152
      9 C         124.7939  154.8190  148.0299 C.3     1  UNL11111   -0.0341
     10 C         124.6693  152.8310  146.7582 C.3     1  UNL11111   -0.0341
     11 C         121.7895  154.6359  145.0557 C.3     1  UNL11111   -0.0192
     12 C         126.2344  154.4649  147.6616 C.3     1  UNL11111   -0.0539
     13 C         126.1502  153.2045  146.8046 C.3     1  UNL11111   -0.0539
     14 C         119.9819  154.0250  146.6503 C.3     1  UNL11111   -0.0315
     15 C         123.2574  154.5915  144.6703 C.3     1  UNL11111    0.0064
     16 C         121.5322  152.2198  145.8224 C.ar    1  UNL11111   -0.0010
     17 C         119.2816  153.1951  147.7366 C.3     1  UNL11111   -0.0284
     18 C         121.7435  151.1845  146.7354 C.ar    1  UNL11111   -0.0514
     19 C         121.7720  149.8645  146.2890 C.ar    1  UNL11111   -0.0708
     20 C         121.3550  150.6658  144.0987 C.ar    1  UNL11111   -0.0127
     21 C         119.0609  152.7283  150.1096 C.3     1  UNL11111    0.0161
     22 C         121.5779  149.5961  144.9433 C.ar    1  UNL11111   -0.0571
     23 C         119.5660  151.3724  150.5104 C.ar    1  UNL11111    0.0248
     24 C         120.1872  151.0074  151.6898 C.ar    1  UNL11111    0.0564
     25 C         120.5250  149.6230  151.7291 C.ar    1  UNL11111   -0.0135
     26 C         120.0933  148.9584  150.6031 C.ar    1  UNL11111   -0.0275
     27 C         120.2259  151.4614  153.9664 C.3     1  UNL11111    0.0304
     28 H         119.9219  154.3629  149.2703 H       1  UNL11111    0.1338
     29 H         122.1742  155.0708  147.7460 H       1  UNL11111    0.0529
     30 H         122.3891  153.4112  148.2499 H       1  UNL11111    0.0529
     31 H         124.5573  154.3973  149.0146 H       1  UNL11111    0.0462
     32 H         124.6639  155.9054  148.0795 H       1  UNL11111    0.0462
     33 H         124.4471  152.3100  145.8242 H       1  UNL11111    0.0462
     34 H         124.4449  152.1544  147.5916 H       1  UNL11111    0.0462
     35 H         121.5539  155.6690  145.3486 H       1  UNL11111    0.0502
     36 H         121.1680  154.4173  144.1790 H       1  UNL11111    0.0502
     37 H         126.8438  154.3080  148.5574 H       1  UNL11111    0.0342
     38 H         126.6974  155.2764  147.0883 H       1  UNL11111    0.0342
     39 H         126.5216  153.4164  145.7950 H       1  UNL11111    0.0342
     40 H         126.7562  152.3897  147.2130 H       1  UNL11111    0.0342
     41 H         119.3588  153.9335  145.7482 H       1  UNL11111    0.0446
     42 H         119.9188  155.0843  146.9382 H       1  UNL11111    0.0446
     43 H         123.5685  153.6110  144.2990 H       1  UNL11111    0.0891
     44 H         123.4395  155.3052  143.8599 H       1  UNL11111    0.0891
     45 H         118.2381  153.5359  147.7659 H       1  UNL11111    0.0605
     46 H         119.2535  152.1427  147.4450 H       1  UNL11111    0.0605
     47 H         121.8655  151.3796  147.7961 H       1  UNL11111    0.1002
     48 H         121.9341  149.0556  146.9955 H       1  UNL11111    0.0906
     49 H         121.1883  150.5146  143.0363 H       1  UNL11111    0.1371
     50 H         117.9984  152.6802  149.8389 H       1  UNL11111    0.0805
     51 H         119.0966  153.3835  150.9896 H       1  UNL11111    0.0805
     52 H         121.5908  148.5811  144.5646 H       1  UNL11111    0.0980
     53 H         121.0544  149.1299  152.5330 H       1  UNL11111    0.1153
     54 H         120.2047  147.9086  150.3702 H       1  UNL11111    0.1125
     55 H         120.2849  152.3177  154.6452 H       1  UNL11111    0.1070
     56 H         120.9988  150.7454  154.2627 H       1  UNL11111    0.1070
     57 H         119.2278  151.0202  154.0700 H       1  UNL11111    0.1070
@<TRIPOS>BOND
     1     1    23   ar
     2     1    26   ar
     3     2     6    1
     4     2    15    1
     5     3    24    1
     6     3    27    1
     7     4    16   ar
     8     4    20   ar
     9     5    17    1
    10     5    21    1
    11     6     8    1
    12     6     9    1
    13     6    10    1
    14     7     8    1
    15     7    11    1
    16     7    14    1
    17     7    16    1
    18     9    12    1
    19    10    13    1
    20    11    15    1
    21    12    13    1
    22    14    17    1
    23    16    18   ar
    24    18    19   ar
    25    19    22   ar
    26    20    22   ar
    27    21    23    1
    28    23    24   ar
    29    24    25   ar
    30    25    26   ar
    31     5    28    1
    32     8    29    1
    33     8    30    1
    34     9    31    1
    35     9    32    1
    36    10    33    1
    37    10    34    1
    38    11    35    1
    39    11    36    1
    40    12    37    1
    41    12    38    1
    42    13    39    1
    43    13    40    1
    44    14    41    1
    45    14    42    1
    46    15    43    1
    47    15    44    1
    48    17    45    1
    49    17    46    1
    50    18    47    1
    51    19    48    1
    52    20    49    1
    53    21    50    1
    54    21    51    1
    55    22    52    1
    56    25    53    1
    57    26    54    1
    58    27    55    1
    59    27    56    1
    60    27    57    1
@<TRIPOS>MOLECULE
66553195
 57 60 0 0 0
SMALL
GASTEIGER

@<TRIPOS>ATOM
      1 S         115.9890  155.1063  143.7474 S.2     1  UNL11111   -0.1269
      2 O         123.9561  154.9635  145.8164 O.3     1  UNL11111   -0.4593
      3 O         117.5999  157.8144  145.9762 O.3     1  UNL11111   -0.5783
      4 N         121.7639  151.6606  144.8340 N.ar    1  UNL11111   -0.3349
      5 N         117.4657  153.5946  146.1556 N.3     1  UNL11111   -0.3404
      6 C         123.7995  154.2196  147.0290 C.3     1  UNL11111    0.0110
      7 C         121.3769  153.6231  146.2927 C.3     1  UNL11111    0.0128
      8 C         122.3150  154.1450  147.4203 C.3     1  UNL11111   -0.0152
      9 C         124.6046  154.9620  148.1094 C.3     1  UNL11111   -0.0341
     10 C         124.5480  152.8805  146.9874 C.3     1  UNL11111   -0.0341
     11 C         121.7202  154.4314  145.0122 C.3     1  UNL11111   -0.0192
     12 C         126.0615  154.5935  147.8345 C.3     1  UNL11111   -0.0539
     13 C         126.0235  153.2639  147.0864 C.3     1  UNL11111   -0.0539
     14 C         119.8948  153.9165  146.7084 C.3     1  UNL11111   -0.0315
     15 C         123.2140  154.4534  144.7122 C.3     1  UNL11111    0.0064
     16 C         121.5334  152.1060  146.0934 C.ar    1  UNL11111   -0.0010
     17 C         118.8417  153.5390  145.6512 C.3     1  UNL11111   -0.0284
     18 C         121.3919  151.2119  147.1588 C.ar    1  UNL11111   -0.0514
     19 C         121.5113  149.8430  146.9280 C.ar    1  UNL11111   -0.0708
     20 C         121.8736  150.3282  144.6351 C.ar    1  UNL11111   -0.0127
     21 C         116.9441  154.9460  146.3825 C.3     1  UNL11111    0.0161
     22 C         121.7587  149.3887  145.6414 C.ar    1  UNL11111   -0.0571
     23 C         116.7516  155.7697  145.1386 C.ar    1  UNL11111    0.0248
     24 C         117.0501  157.1075  144.9542 C.ar    1  UNL11111    0.0564
     25 C         116.7252  157.5596  143.6399 C.ar    1  UNL11111   -0.0135
     26 C         116.1507  156.5662  142.8788 C.ar    1  UNL11111   -0.0275
     27 C         117.5663  159.2254  145.8043 C.3     1  UNL11111    0.0304
     28 H         117.4022  153.0676  147.0236 H       1  UNL11111    0.1338
     29 H         121.9953  155.1696  147.6626 H       1  UNL11111    0.0529
     30 H         122.1946  153.5724  148.3474 H       1  UNL11111    0.0529
     31 H         124.3268  154.6145  149.1123 H       1  UNL11111    0.0462
     32 H         124.4664  156.0477  148.0699 H       1  UNL11111    0.0462
     33 H         124.3798  152.2924  146.0829 H       1  UNL11111    0.0462
     34 H         124.2786  152.2613  147.8520 H       1  UNL11111    0.0462
     35 H         121.3964  155.4707  145.1616 H       1  UNL11111    0.0502
     36 H         121.1817  154.0587  144.1333 H       1  UNL11111    0.0502
     37 H         126.6334  154.5208  148.7651 H       1  UNL11111    0.0342
     38 H         126.5422  155.3578  147.2132 H       1  UNL11111    0.0342
     39 H         126.4534  153.3880  146.0856 H       1  UNL11111    0.0342
     40 H         126.6033  152.4895  147.5987 H       1  UNL11111    0.0342
     41 H         119.7973  154.9872  146.9313 H       1  UNL11111    0.0446
     42 H         119.6668  153.3936  147.6469 H       1  UNL11111    0.0446
     43 H         123.6011  153.4747  144.4165 H       1  UNL11111    0.0891
     44 H         123.3983  155.1241  143.8660 H       1  UNL11111    0.0891
     45 H         118.9513  154.1600  144.7565 H       1  UNL11111    0.0605
     46 H         119.0018  152.5071  145.3225 H       1  UNL11111    0.0605
     47 H         121.1822  151.5604  148.1645 H       1  UNL11111    0.1002
     48 H         121.4048  149.1381  147.7475 H       1  UNL11111    0.0906
     49 H         122.0606  150.0286  143.6079 H       1  UNL11111    0.1371
     50 H         117.5710  155.4751  147.1086 H       1  UNL11111    0.0805
     51 H         115.9609  154.8453  146.8601 H       1  UNL11111    0.0805
     52 H         121.8532  148.3307  145.4266 H       1  UNL11111    0.0980
     53 H         116.8925  158.5564  143.2552 H       1  UNL11111    0.1153
     54 H         115.8065  156.6299  141.8560 H       1  UNL11111    0.1125
     55 H         117.9217  159.6847  146.7318 H       1  UNL11111    0.1070
     56 H         116.5452  159.5819  145.6272 H       1  UNL11111    0.1070
     57 H         118.2362  159.5394  144.9974 H       1  UNL11111    0.1070
@<TRIPOS>BOND
     1     1    23   ar
     2     1    26   ar
     3     2     6    1
     4     2    15    1
     5     3    24    1
     6     3    27    1
     7     4    16   ar
     8     4    20   ar
     9     5    17    1
    10     5    21    1
    11     6     8    1
    12     6     9    1
    13     6    10    1
    14     7     8    1
    15     7    11    1
    16     7    14    1
    17     7    16    1
    18     9    12    1
    19    10    13    1
    20    11    15    1
    21    12    13    1
    22    14    17    1
    23    16    18   ar
    24    18    19   ar
    25    19    22   ar
    26    20    22   ar
    27    21    23    1
    28    23    24   ar
    29    24    25   ar
    30    25    26   ar
    31     5    28    1
    32     8    29    1
    33     8    30    1
    34     9    31    1
    35     9    32    1
    36    10    33    1
    37    10    34    1
    38    11    35    1
    39    11    36    1
    40    12    37    1
    41    12    38    1
    42    13    39    1
    43    13    40    1
    44    14    41    1
    45    14    42    1
    46    15    43    1
    47    15    44    1
    48    17    45    1
    49    17    46    1
    50    18    47    1
    51    19    48    1
    52    20    49    1
    53    21    50    1
    54    21    51    1
    55    22    52    1
    56    25    53    1
    57    26    54    1
    58    27    55    1
    59    27    56    1
    60    27    57    1
@<TRIPOS>MOLECULE
66553195
 57 60 0 0 0
SMALL
GASTEIGER

@<TRIPOS>ATOM
      1 S         118.2349  154.8845  152.0393 S.2     1  UNL11111   -0.1269
      2 O         123.7426  155.0475  145.3394 O.3     1  UNL11111   -0.4593
      3 O         120.6733  151.9808  151.3025 O.3     1  UNL11111   -0.5783
      4 N         121.0959  151.7321  144.7113 N.ar    1  UNL11111   -0.3349
      5 N         118.3839  153.5577  148.8110 N.3     1  UNL11111   -0.3404
      6 C         123.8531  154.3119  146.5617 C.3     1  UNL11111    0.0110
      7 C         121.3571  153.6030  146.2993 C.3     1  UNL11111    0.0128
      8 C         122.4775  154.1428  147.2331 C.3     1  UNL11111   -0.0152
      9 C         124.7982  155.1121  147.4752 C.3     1  UNL11111   -0.0341
     10 C         124.6667  153.0249  146.3721 C.3     1  UNL11111   -0.0341
     11 C         121.4152  154.4737  145.0082 C.3     1  UNL11111   -0.0192
     12 C         126.2003  154.8316  146.9367 C.3     1  UNL11111   -0.0539
     13 C         126.1034  153.5082  146.1827 C.3     1  UNL11111   -0.0539
     14 C         119.9420  153.8367  146.9283 C.3     1  UNL11111   -0.0315
     15 C         122.8105  154.5084  144.4059 C.3     1  UNL11111    0.0064
     16 C         121.4896  152.1090  145.9543 C.ar    1  UNL11111   -0.0010
     17 C         119.7166  153.2061  148.3086 C.3     1  UNL11111   -0.0284
     18 C         121.9323  151.1598  146.8788 C.ar    1  UNL11111   -0.0514
     19 C         121.9986  149.8162  146.5117 C.ar    1  UNL11111   -0.0708
     20 C         121.1701  150.4247  144.3774 C.ar    1  UNL11111   -0.0127
     21 C         118.0958  152.8967  150.0925 C.3     1  UNL11111    0.0161
     22 C         121.6138  149.4380  145.2349 C.ar    1  UNL11111   -0.0571
     23 C         118.8533  153.4941  151.2434 C.ar    1  UNL11111    0.0248
     24 C         120.0420  153.0721  151.8110 C.ar    1  UNL11111    0.0564
     25 C         120.4369  153.8969  152.9072 C.ar    1  UNL11111   -0.0135
     26 C         119.5429  154.9194  153.1352 C.ar    1  UNL11111   -0.0275
     27 C         121.9907  151.7752  151.7941 C.3     1  UNL11111    0.0304
     28 H         117.6883  153.2501  148.1326 H       1  UNL11111    0.1338
     29 H         122.1590  155.1407  147.5704 H       1  UNL11111    0.0529
     30 H         122.5815  153.5464  148.1457 H       1  UNL11111    0.0529
     31 H         124.7321  154.7588  148.5119 H       1  UNL11111    0.0462
     32 H         124.5876  156.1869  147.4640 H       1  UNL11111    0.0462
     33 H         124.3623  152.4197  145.5151 H       1  UNL11111    0.0462
     34 H         124.6168  152.3993  147.2715 H       1  UNL11111    0.0462
     35 H         121.1406  155.5059  145.2674 H       1  UNL11111    0.0502
     36 H         120.6890  154.1431  144.2562 H       1  UNL11111    0.0502
     37 H         126.9317  154.7832  147.7499 H       1  UNL11111    0.0342
     38 H         126.5198  155.6283  146.2554 H       1  UNL11111    0.0342
     39 H         126.3137  153.6704  145.1190 H       1  UNL11111    0.0342
     40 H         126.8252  152.7727  146.5517 H       1  UNL11111    0.0342
     41 H         119.1724  153.4658  146.2362 H       1  UNL11111    0.0446
     42 H         119.7714  154.9189  147.0205 H       1  UNL11111    0.0446
     43 H         123.1436  153.5277  144.0546 H       1  UNL11111    0.0891
     44 H         122.8110  155.1707  143.5337 H       1  UNL11111    0.0891
     45 H         119.7986  152.1175  148.2437 H       1  UNL11111    0.0605
     46 H         120.4796  153.5760  148.9979 H       1  UNL11111    0.0605
     47 H         122.2168  151.4355  147.8880 H       1  UNL11111    0.1002
     48 H         122.3430  149.0714  147.2235 H       1  UNL11111    0.0906
     49 H         120.8492  150.1872  143.3673 H       1  UNL11111    0.1371
     50 H         118.2827  151.8178  150.0226 H       1  UNL11111    0.0805
     51 H         117.0198  152.9939  150.2859 H       1  UNL11111    0.0805
     52 H         121.6518  148.4022  144.9184 H       1  UNL11111    0.0980
     53 H         121.3244  153.7639  153.5110 H       1  UNL11111    0.1153
     54 H         119.5935  155.6871  153.8948 H       1  UNL11111    0.1125
     55 H         122.4205  150.9262  151.2538 H       1  UNL11111    0.1070
     56 H         121.9793  151.5223  152.8593 H       1  UNL11111    0.1070
     57 H         122.6270  152.6465  151.6033 H       1  UNL11111    0.1070
@<TRIPOS>BOND
     1     1    23   ar
     2     1    26   ar
     3     2     6    1
     4     2    15    1
     5     3    24    1
     6     3    27    1
     7     4    16   ar
     8     4    20   ar
     9     5    17    1
    10     5    21    1
    11     6     8    1
    12     6     9    1
    13     6    10    1
    14     7     8    1
    15     7    11    1
    16     7    14    1
    17     7    16    1
    18     9    12    1
    19    10    13    1
    20    11    15    1
    21    12    13    1
    22    14    17    1
    23    16    18   ar
    24    18    19   ar
    25    19    22   ar
    26    20    22   ar
    27    21    23    1
    28    23    24   ar
    29    24    25   ar
    30    25    26   ar
    31     5    28    1
    32     8    29    1
    33     8    30    1
    34     9    31    1
    35     9    32    1
    36    10    33    1
    37    10    34    1
    38    11    35    1
    39    11    36    1
    40    12    37    1
    41    12    38    1
    42    13    39    1
    43    13    40    1
    44    14    41    1
    45    14    42    1
    46    15    43    1
    47    15    44    1
    48    17    45    1
    49    17    46    1
    50    18    47    1
    51    19    48    1
    52    20    49    1
    53    21    50    1
    54    21    51    1
    55    22    52    1
    56    25    53    1
    57    26    54    1
    58    27    55    1
    59    27    56    1
    60    27    57    1
@<TRIPOS>MOLECULE
66553195
 57 60 0 0 0
SMALL
GASTEIGER

@<TRIPOS>ATOM
      1 S         118.5863  157.0993  150.7487 S.2     1  UNL11111   -0.1269
      2 O         123.9359  154.9090  145.5234 O.3     1  UNL11111   -0.4593
      3 O         120.5800  153.8005  150.4878 O.3     1  UNL11111   -0.5783
      4 N         121.4570  151.7645  144.6773 N.ar    1  UNL11111   -0.3349
      5 N         118.2140  155.3933  147.8279 N.3     1  UNL11111   -0.3404
      6 C         123.9197  154.1281  146.7233 C.3     1  UNL11111    0.0110
      7 C         121.4005  153.6390  146.3064 C.3     1  UNL11111    0.0128
      8 C         122.5004  154.0722  147.3151 C.3     1  UNL11111   -0.0152
      9 C         124.8815  154.8138  147.7094 C.3     1  UNL11111   -0.0341
     10 C         124.6212  152.7765  146.5364 C.3     1  UNL11111   -0.0341
     11 C         121.5907  154.5074  145.0345 C.3     1  UNL11111   -0.0192
     12 C         126.2782  154.4261  147.2283 C.3     1  UNL11111   -0.0539
     13 C         126.1060  153.1258  146.4481 C.3     1  UNL11111   -0.0539
     14 C         119.9663  153.8457  146.9023 C.3     1  UNL11111   -0.0315
     15 C         123.0244  154.4703  144.5184 C.3     1  UNL11111    0.0064
     16 C         121.4893  152.1304  145.9828 C.ar    1  UNL11111   -0.0010
     17 C         119.5481  155.2880  147.2254 C.3     1  UNL11111   -0.0284
     18 C         121.5397  151.1694  146.9980 C.ar    1  UNL11111   -0.0514
     19 C         121.5916  149.8177  146.6642 C.ar    1  UNL11111   -0.0708
     20 C         121.5089  150.4471  144.3792 C.ar    1  UNL11111   -0.0127
     21 C         118.1022  154.8430  149.1845 C.3     1  UNL11111    0.0161
     22 C         121.5800  149.4458  145.3284 C.ar    1  UNL11111   -0.0571
     23 C         118.9830  155.5235  150.1925 C.ar    1  UNL11111    0.0248
     24 C         120.1275  155.0429  150.8030 C.ar    1  UNL11111    0.0564
     25 C         120.6866  155.9888  151.7147 C.ar    1  UNL11111   -0.0135
     26 C         119.9472  157.1490  151.7774 C.ar    1  UNL11111   -0.0275
     27 C         121.7346  153.3866  151.2058 C.3     1  UNL11111    0.0304
     28 H         117.5388  154.9188  147.2309 H       1  UNL11111    0.1338
     29 H         122.2684  155.0900  147.6525 H       1  UNL11111    0.0529
     30 H         122.4909  153.4534  148.2187 H       1  UNL11111    0.0529
     31 H         124.7315  154.4363  148.7286 H       1  UNL11111    0.0462
     32 H         124.7663  155.9029  147.7250 H       1  UNL11111    0.0462
     33 H         124.3175  152.2271  145.6427 H       1  UNL11111    0.0462
     34 H         124.4552  152.1318  147.4081 H       1  UNL11111    0.0462
     35 H         121.3770  155.5551  145.2773 H       1  UNL11111    0.0502
     36 H         120.8932  154.2202  144.2389 H       1  UNL11111    0.0502
     37 H         126.9677  154.3079  148.0703 H       1  UNL11111    0.0342
     38 H         126.6901  155.2028  146.5738 H       1  UNL11111    0.0342
     39 H         126.4007  153.2780  145.4031 H       1  UNL11111    0.0342
     40 H         126.7296  152.3215  146.8511 H       1  UNL11111    0.0342
     41 H         119.8866  153.2424  147.8137 H       1  UNL11111    0.0446
     42 H         119.2271  153.4296  146.2020 H       1  UNL11111    0.0446
     43 H         123.3206  153.4880  144.1418 H       1  UNL11111    0.0891
     44 H         123.1193  155.1643  143.6762 H       1  UNL11111    0.0891
     45 H         120.2844  155.7958  147.8529 H       1  UNL11111    0.0605
     46 H         119.5017  155.8629  146.2947 H       1  UNL11111    0.0605
     47 H         121.5273  151.4537  148.0450 H       1  UNL11111    0.1002
     48 H         121.6336  149.0626  147.4438 H       1  UNL11111    0.0906
     49 H         121.4892  150.2129  143.3188 H       1  UNL11111    0.1371
     50 H         118.2780  153.7618  149.1818 H       1  UNL11111    0.0805
     51 H         117.0580  154.9587  149.5032 H       1  UNL11111    0.0805
     52 H         121.6176  148.4034  145.0342 H       1  UNL11111    0.0980
     53 H         121.5827  155.8470  152.3037 H       1  UNL11111    0.1153
     54 H         120.1394  158.0257  152.3803 H       1  UNL11111    0.1125
     55 H         121.9867  152.3737  150.8770 H       1  UNL11111    0.1070
     56 H         121.5402  153.3493  152.2830 H       1  UNL11111    0.1070
     57 H         122.5913  154.0312  150.9817 H       1  UNL11111    0.1070
@<TRIPOS>BOND
     1     1    23   ar
     2     1    26   ar
     3     2     6    1
     4     2    15    1
     5     3    24    1
     6     3    27    1
     7     4    16   ar
     8     4    20   ar
     9     5    17    1
    10     5    21    1
    11     6     8    1
    12     6     9    1
    13     6    10    1
    14     7     8    1
    15     7    11    1
    16     7    14    1
    17     7    16    1
    18     9    12    1
    19    10    13    1
    20    11    15    1
    21    12    13    1
    22    14    17    1
    23    16    18   ar
    24    18    19   ar
    25    19    22   ar
    26    20    22   ar
    27    21    23    1
    28    23    24   ar
    29    24    25   ar
    30    25    26   ar
    31     5    28    1
    32     8    29    1
    33     8    30    1
    34     9    31    1
    35     9    32    1
    36    10    33    1
    37    10    34    1
    38    11    35    1
    39    11    36    1
    40    12    37    1
    41    12    38    1
    42    13    39    1
    43    13    40    1
    44    14    41    1
    45    14    42    1
    46    15    43    1
    47    15    44    1
    48    17    45    1
    49    17    46    1
    50    18    47    1
    51    19    48    1
    52    20    49    1
    53    21    50    1
    54    21    51    1
    55    22    52    1
    56    25    53    1
    57    26    54    1
    58    27    55    1
    59    27    56    1
    60    27    57    1
@<TRIPOS>MOLECULE
66553195
 57 60 0 0 0
SMALL
GASTEIGER

@<TRIPOS>ATOM
      1 S         117.3426  151.9736  151.5815 S.2     1  UNL11111   -0.1269
      2 O         123.8928  154.8332  145.5690 O.3     1  UNL11111   -0.4593
      3 O         118.3120  155.5940  150.6515 O.3     1  UNL11111   -0.5783
      4 N         121.3146  151.4957  144.8710 N.ar    1  UNL11111   -0.3349
      5 N         120.1777  153.5927  149.3850 N.3     1  UNL11111   -0.3404
      6 C         123.9191  154.1323  146.8171 C.3     1  UNL11111    0.0110
      7 C         121.4414  153.4169  146.4185 C.3     1  UNL11111    0.0128
      8 C         122.5013  153.9869  147.4021 C.3     1  UNL11111   -0.0152
      9 C         124.8080  154.9558  147.7658 C.3     1  UNL11111   -0.0341
     10 C         124.7369  152.8373  146.7182 C.3     1  UNL11111   -0.0341
     11 C         121.5934  154.2459  145.1043 C.3     1  UNL11111   -0.0192
     12 C         126.2404  154.6544  147.3270 C.3     1  UNL11111   -0.0539
     13 C         126.1847  153.3110  146.6048 C.3     1  UNL11111   -0.0539
     14 C         119.9754  153.6688  146.9121 C.3     1  UNL11111   -0.0315
     15 C         123.0248  154.2631  144.5943 C.3     1  UNL11111    0.0064
     16 C         121.5976  151.9137  146.1318 C.ar    1  UNL11111   -0.0010
     17 C         119.5079  153.0153  148.2222 C.3     1  UNL11111   -0.0284
     18 C         121.9536  150.9974  147.1240 C.ar    1  UNL11111   -0.0514
     19 C         122.0510  149.6427  146.8103 C.ar    1  UNL11111   -0.0708
     20 C         121.4174  150.1777  144.5906 C.ar    1  UNL11111   -0.0127
     21 C         119.7660  152.9658  150.6472 C.3     1  UNL11111    0.0161
     22 C         121.7819  149.2213  145.5174 C.ar    1  UNL11111   -0.0571
     23 C         118.3436  153.2587  151.0377 C.ar    1  UNL11111    0.0248
     24 C         117.6678  154.4661  151.0521 C.ar    1  UNL11111    0.0564
     25 C         116.3248  154.3261  151.5145 C.ar    1  UNL11111   -0.0135
     26 C         116.0201  153.0218  151.8348 C.ar    1  UNL11111   -0.0275
     27 C         117.4773  156.7346  150.4993 C.3     1  UNL11111    0.0304
     28 H         119.9378  154.5856  149.4507 H       1  UNL11111    0.1338
     29 H         122.1661  154.9956  147.6861 H       1  UNL11111    0.0529
     30 H         122.5544  153.4164  148.3341 H       1  UNL11111    0.0529
     31 H         124.6737  154.6333  148.8060 H       1  UNL11111    0.0462
     32 H         124.6045  156.0305  147.7098 H       1  UNL11111    0.0462
     33 H         124.4844  152.2066  145.8628 H       1  UNL11111    0.0462
     34 H         124.6273  152.2396  147.6311 H       1  UNL11111    0.0462
     35 H         121.3031  155.2858  145.3110 H       1  UNL11111    0.0502
     36 H         120.9199  153.8911  144.3150 H       1  UNL11111    0.0502
     37 H         126.9175  154.6253  148.1869 H       1  UNL11111    0.0342
     38 H         126.6083  155.4305  146.6463 H       1  UNL11111    0.0342
     39 H         126.4607  153.4435  145.5521 H       1  UNL11111    0.0342
     40 H         126.8792  152.5839  147.0374 H       1  UNL11111    0.0342
     41 H         119.2843  153.3300  146.1262 H       1  UNL11111    0.0446
     42 H         119.8075  154.7521  146.9979 H       1  UNL11111    0.0446
     43 H         123.3797  153.2728  144.2956 H       1  UNL11111    0.0891
     44 H         123.0827  154.8978  143.7037 H       1  UNL11111    0.0891
     45 H         118.4264  153.1822  148.2975 H       1  UNL11111    0.0605
     46 H         119.6520  151.9318  148.1864 H       1  UNL11111    0.0605
     47 H         122.1425  151.3129  148.1447 H       1  UNL11111    0.1002
     48 H         122.3293  148.9240  147.5757 H       1  UNL11111    0.0906
     49 H         121.1878  149.9051  143.5647 H       1  UNL11111    0.1371
     50 H         120.4176  153.3547  151.4396 H       1  UNL11111    0.0805
     51 H         119.9629  151.8877  150.5991 H       1  UNL11111    0.0805
     52 H         121.8471  148.1756  145.2409 H       1  UNL11111    0.0980
     53 H         115.6053  155.1273  151.6181 H       1  UNL11111    0.1153
     54 H         115.0826  152.6337  152.2089 H       1  UNL11111    0.1125
     55 H         118.0918  157.5486  150.1029 H       1  UNL11111    0.1070
     56 H         117.0741  157.0593  151.4642 H       1  UNL11111    0.1070
     57 H         116.6722  156.5450  149.7808 H       1  UNL11111    0.1070
@<TRIPOS>BOND
     1     1    23   ar
     2     1    26   ar
     3     2     6    1
     4     2    15    1
     5     3    24    1
     6     3    27    1
     7     4    16   ar
     8     4    20   ar
     9     5    17    1
    10     5    21    1
    11     6     8    1
    12     6     9    1
    13     6    10    1
    14     7     8    1
    15     7    11    1
    16     7    14    1
    17     7    16    1
    18     9    12    1
    19    10    13    1
    20    11    15    1
    21    12    13    1
    22    14    17    1
    23    16    18   ar
    24    18    19   ar
    25    19    22   ar
    26    20    22   ar
    27    21    23    1
    28    23    24   ar
    29    24    25   ar
    30    25    26   ar
    31     5    28    1
    32     8    29    1
    33     8    30    1
    34     9    31    1
    35     9    32    1
    36    10    33    1
    37    10    34    1
    38    11    35    1
    39    11    36    1
    40    12    37    1
    41    12    38    1
    42    13    39    1
    43    13    40    1
    44    14    41    1
    45    14    42    1
    46    15    43    1
    47    15    44    1
    48    17    45    1
    49    17    46    1
    50    18    47    1
    51    19    48    1
    52    20    49    1
    53    21    50    1
    54    21    51    1
    55    22    52    1
    56    25    53    1
    57    26    54    1
    58    27    55    1
    59    27    56    1
    60    27    57    1
@<TRIPOS>MOLECULE
66553195
 57 60 0 0 0
SMALL
GASTEIGER

@<TRIPOS>ATOM
      1 S         116.8027  151.1934  143.7321 S.2     1  UNL11111   -0.1269
      2 O         123.9537  155.0205  145.8138 O.3     1  UNL11111   -0.4593
      3 O         115.2542  151.1080  147.2679 O.3     1  UNL11111   -0.5783
      4 N         121.9138  151.2533  147.2312 N.ar    1  UNL11111   -0.3349
      5 N         117.6000  153.5070  146.5171 N.3     1  UNL11111   -0.3404
      6 C         123.9002  154.2285  147.0080 C.3     1  UNL11111    0.0110
      7 C         121.4833  153.5084  146.3557 C.3     1  UNL11111    0.0128
      8 C         122.4451  154.0443  147.4632 C.3     1  UNL11111   -0.0152
      9 C         124.7061  154.9871  148.0763 C.3     1  UNL11111   -0.0341
     10 C         124.7331  152.9468  146.8798 C.3     1  UNL11111   -0.0341
     11 C         121.7065  154.4112  145.1157 C.3     1  UNL11111   -0.0192
     12 C         126.1694  154.7260  147.7236 C.3     1  UNL11111   -0.0539
     13 C         126.1819  153.4297  146.9180 C.3     1  UNL11111   -0.0539
     14 C         120.0211  153.6851  146.8883 C.3     1  UNL11111   -0.0315
     15 C         123.1777  154.5175  144.7342 C.3     1  UNL11111    0.0064
     16 C         121.7202  152.0085  146.1193 C.ar    1  UNL11111   -0.0010
     17 C         118.9117  153.2629  145.9124 C.3     1  UNL11111   -0.0284
     18 C         121.6790  151.4180  144.8546 C.ar    1  UNL11111   -0.0514
     19 C         121.8615  150.0408  144.7313 C.ar    1  UNL11111   -0.0708
     20 C         122.0851  149.9210  147.0864 C.ar    1  UNL11111   -0.0127
     21 C         116.4886  153.2489  145.5921 C.3     1  UNL11111    0.0161
     22 C         122.0709  149.2742  145.8672 C.ar    1  UNL11111   -0.0571
     23 C         116.3075  151.7949  145.2639 C.ar    1  UNL11111    0.0248
     24 C         115.7446  150.7989  146.0400 C.ar    1  UNL11111    0.0564
     25 C         115.7472  149.5342  145.3784 C.ar    1  UNL11111   -0.0135
     26 C         116.3018  149.6082  144.1200 C.ar    1  UNL11111   -0.0275
     27 C         114.9890  149.9890  148.1011 C.3     1  UNL11111    0.0304
     28 H         117.5412  154.4745  146.8276 H       1  UNL11111    0.1338
     29 H         122.0760  155.0362  147.7649 H       1  UNL11111    0.0529
     30 H         122.4023  153.4279  148.3701 H       1  UNL11111    0.0529
     31 H         124.4990  154.5898  149.0778 H       1  UNL11111    0.0462
     32 H         124.4956  156.0620  148.0818 H       1  UNL11111    0.0462
     33 H         124.5553  152.3800  145.9632 H       1  UNL11111    0.0462
     34 H         124.5538  152.2827  147.7341 H       1  UNL11111    0.0462
     35 H         121.3529  155.4234  145.3576 H       1  UNL11111    0.0502
     36 H         121.1253  154.0867  144.2473 H       1  UNL11111    0.0502
     37 H         126.7851  154.6502  148.6257 H       1  UNL11111    0.0342
     38 H         126.5734  155.5460  147.1190 H       1  UNL11111    0.0342
     39 H         126.5447  153.6271  145.9025 H       1  UNL11111    0.0342
     40 H         126.8422  152.6781  147.3621 H       1  UNL11111    0.0342
     41 H         119.8663  154.7407  147.1530 H       1  UNL11111    0.0446
     42 H         119.9022  153.1187  147.8231 H       1  UNL11111    0.0446
     43 H         123.5872  153.5665  144.3824 H       1  UNL11111    0.0891
     44 H         123.2827  155.2259  143.9055 H       1  UNL11111    0.0891
     45 H         118.9978  153.8321  144.9812 H       1  UNL11111    0.0605
     46 H         119.0178  152.1994  145.6835 H       1  UNL11111    0.0605
     47 H         121.4933  151.9926  143.9554 H       1  UNL11111    0.1002
     48 H         121.8296  149.5713  143.7522 H       1  UNL11111    0.0906
     49 H         122.2365  149.3722  148.0112 H       1  UNL11111    0.1371
     50 H         116.6023  153.8560  144.6852 H       1  UNL11111    0.0805
     51 H         115.5671  153.6044  146.0705 H       1  UNL11111    0.0805
     52 H         122.2108  148.2016  145.8051 H       1  UNL11111    0.0980
     53 H         115.3588  148.6103  145.7852 H       1  UNL11111    0.1153
     54 H         116.4275  148.8075  143.4046 H       1  UNL11111    0.1125
     55 H         114.7057  150.3657  149.0887 H       1  UNL11111    0.1070
     56 H         115.8794  149.3628  148.2253 H       1  UNL11111    0.1070
     57 H         114.1486  149.4025  147.7152 H       1  UNL11111    0.1070
@<TRIPOS>BOND
     1     1    23   ar
     2     1    26   ar
     3     2     6    1
     4     2    15    1
     5     3    24    1
     6     3    27    1
     7     4    16   ar
     8     4    20   ar
     9     5    17    1
    10     5    21    1
    11     6     8    1
    12     6     9    1
    13     6    10    1
    14     7     8    1
    15     7    11    1
    16     7    14    1
    17     7    16    1
    18     9    12    1
    19    10    13    1
    20    11    15    1
    21    12    13    1
    22    14    17    1
    23    16    18   ar
    24    18    19   ar
    25    19    22   ar
    26    20    22   ar
    27    21    23    1
    28    23    24   ar
    29    24    25   ar
    30    25    26   ar
    31     5    28    1
    32     8    29    1
    33     8    30    1
    34     9    31    1
    35     9    32    1
    36    10    33    1
    37    10    34    1
    38    11    35    1
    39    11    36    1
    40    12    37    1
    41    12    38    1
    42    13    39    1
    43    13    40    1
    44    14    41    1
    45    14    42    1
    46    15    43    1
    47    15    44    1
    48    17    45    1
    49    17    46    1
    50    18    47    1
    51    19    48    1
    52    20    49    1
    53    21    50    1
    54    21    51    1
    55    22    52    1
    56    25    53    1
    57    26    54    1
    58    27    55    1
    59    27    56    1
    60    27    57    1
@<TRIPOS>MOLECULE
66553195
 57 60 0 0 0
SMALL
GASTEIGER

@<TRIPOS>ATOM
      1 S         118.9072  150.2190  151.1479 S.2     1  UNL11111   -0.1269
      2 O         123.7738  154.9719  145.6735 O.3     1  UNL11111   -0.4593
      3 O         116.3621  150.9288  148.3329 O.3     1  UNL11111   -0.5783
      4 N         122.1402  151.2555  146.9893 N.ar    1  UNL11111   -0.3349
      5 N         118.2887  153.3029  148.8904 N.3     1  UNL11111   -0.3404
      6 C         123.8455  154.1968  146.8774 C.3     1  UNL11111    0.0110
      7 C         121.3360  153.5434  146.5094 C.3     1  UNL11111    0.0128
      8 C         122.4493  154.0019  147.4992 C.3     1  UNL11111   -0.0152
      9 C         124.7536  154.9760  147.8461 C.3     1  UNL11111   -0.0341
     10 C         124.6808  152.9263  146.6733 C.3     1  UNL11111   -0.0341
     11 C         121.4557  154.4514  145.2559 C.3     1  UNL11111   -0.0192
     12 C         126.1733  154.7348  147.3366 C.3     1  UNL11111   -0.0539
     13 C         126.1182  153.4294  146.5480 C.3     1  UNL11111   -0.0539
     14 C         119.9283  153.7912  147.1444 C.3     1  UNL11111   -0.0315
     15 C         122.8700  154.4638  144.7008 C.3     1  UNL11111    0.0064
     16 C         121.4278  152.0497  146.1532 C.ar    1  UNL11111   -0.0010
     17 C         119.6684  153.0465  148.4632 C.3     1  UNL11111   -0.0284
     18 C         120.7206  151.5037  145.0784 C.ar    1  UNL11111   -0.0514
     19 C         120.7795  150.1316  144.8396 C.ar    1  UNL11111   -0.0708
     20 C         122.1844  149.9283  146.7368 C.ar    1  UNL11111   -0.0127
     21 C         117.9753  152.6541  150.1709 C.3     1  UNL11111    0.0161
     22 C         121.5294  149.3251  145.6815 C.ar    1  UNL11111   -0.0571
     23 C         117.9348  151.1529  150.0855 C.ar    1  UNL11111    0.0248
     24 C         117.1892  150.3490  149.2423 C.ar    1  UNL11111    0.0564
     25 C         117.4281  148.9608  149.4729 C.ar    1  UNL11111   -0.0135
     26 C         118.3425  148.7528  150.4818 C.ar    1  UNL11111   -0.0275
     27 C         115.7067  150.0213  147.4579 C.3     1  UNL11111    0.0304
     28 H         117.6449  152.9205  148.1948 H       1  UNL11111    0.1338
     29 H         122.1384  154.9801  147.8960 H       1  UNL11111    0.0529
     30 H         122.5186  153.3384  148.3700 H       1  UNL11111    0.0529
     31 H         124.6634  154.5841  148.8669 H       1  UNL11111    0.0462
     32 H         124.5278  156.0476  147.8673 H       1  UNL11111    0.0462
     33 H         124.4111  152.3470  145.7871 H       1  UNL11111    0.0462
     34 H         124.6095  152.2713  147.5501 H       1  UNL11111    0.0462
     35 H         121.2020  155.4811  145.5450 H       1  UNL11111    0.0502
     36 H         120.7490  154.1751  144.4673 H       1  UNL11111    0.0502
     37 H         126.8862  154.6804  148.1656 H       1  UNL11111    0.0342
     38 H         126.4933  155.5539  146.6824 H       1  UNL11111    0.0342
     39 H         126.3662  153.6191  145.4972 H       1  UNL11111    0.0342
     40 H         126.8338  152.6926  146.9264 H       1  UNL11111    0.0342
     41 H         119.1498  153.5170  146.4182 H       1  UNL11111    0.0446
     42 H         119.8005  154.8677  147.3268 H       1  UNL11111    0.0446
     43 H         123.1895  153.4783  144.3492 H       1  UNL11111    0.0891
     44 H         122.9141  155.1366  143.8379 H       1  UNL11111    0.0891
     45 H         119.8274  151.9732  148.3270 H       1  UNL11111    0.0605
     46 H         120.3603  153.4039  149.2331 H       1  UNL11111    0.0605
     47 H         120.1018  152.1188  144.4345 H       1  UNL11111    0.1002
     48 H         120.2330  149.6978  144.0071 H       1  UNL11111    0.0906
     49 H         122.7798  149.3460  147.4339 H       1  UNL11111    0.1371
     50 H         116.9838  153.0009  150.4876 H       1  UNL11111    0.0805
     51 H         118.6737  153.0028  150.9414 H       1  UNL11111    0.0805
     52 H         121.5946  148.2548  145.5256 H       1  UNL11111    0.0980
     53 H         116.9645  148.1423  148.9391 H       1  UNL11111    0.1153
     54 H         118.7061  147.8082  150.8619 H       1  UNL11111    0.1125
     55 H         115.0974  150.6070  146.7628 H       1  UNL11111    0.1070
     56 H         115.0355  149.3548  148.0099 H       1  UNL11111    0.1070
     57 H         116.4296  149.4492  146.8662 H       1  UNL11111    0.1070
@<TRIPOS>BOND
     1     1    23   ar
     2     1    26   ar
     3     2     6    1
     4     2    15    1
     5     3    24    1
     6     3    27    1
     7     4    16   ar
     8     4    20   ar
     9     5    17    1
    10     5    21    1
    11     6     8    1
    12     6     9    1
    13     6    10    1
    14     7     8    1
    15     7    11    1
    16     7    14    1
    17     7    16    1
    18     9    12    1
    19    10    13    1
    20    11    15    1
    21    12    13    1
    22    14    17    1
    23    16    18   ar
    24    18    19   ar
    25    19    22   ar
    26    20    22   ar
    27    21    23    1
    28    23    24   ar
    29    24    25   ar
    30    25    26   ar
    31     5    28    1
    32     8    29    1
    33     8    30    1
    34     9    31    1
    35     9    32    1
    36    10    33    1
    37    10    34    1
    38    11    35    1
    39    11    36    1
    40    12    37    1
    41    12    38    1
    42    13    39    1
    43    13    40    1
    44    14    41    1
    45    14    42    1
    46    15    43    1
    47    15    44    1
    48    17    45    1
    49    17    46    1
    50    18    47    1
    51    19    48    1
    52    20    49    1
    53    21    50    1
    54    21    51    1
    55    22    52    1
    56    25    53    1
    57    26    54    1
    58    27    55    1
    59    27    56    1
    60    27    57    1
@<TRIPOS>MOLECULE
66553195
 57 60 0 0 0
SMALL
GASTEIGER

@<TRIPOS>ATOM
      1 S         118.0550  150.4608  148.7166 S.2     1  UNL11111   -0.1269
      2 O         123.9020  155.0108  145.6988 O.3     1  UNL11111   -0.4593
      3 O         115.6385  151.3059  145.8272 O.3     1  UNL11111   -0.5783
      4 N         121.6654  151.6824  144.8355 N.ar    1  UNL11111   -0.3349
      5 N         117.5007  153.6736  146.6005 N.3     1  UNL11111   -0.3404
      6 C         123.8864  154.2327  146.8999 C.3     1  UNL11111    0.0110
      7 C         121.4172  153.5894  146.3943 C.3     1  UNL11111    0.0128
      8 C         122.4525  154.1053  147.4359 C.3     1  UNL11111   -0.0152
      9 C         124.7764  154.9694  147.9153 C.3     1  UNL11111   -0.0341
     10 C         124.6599  152.9166  146.7454 C.3     1  UNL11111   -0.0341
     11 C         121.6082  154.4444  145.1122 C.3     1  UNL11111   -0.0192
     12 C         126.2071  154.6482  147.4873 C.3     1  UNL11111   -0.0539
     13 C         126.1273  153.3395  146.7062 C.3     1  UNL11111   -0.0539
     14 C         119.9829  153.8333  146.9733 C.3     1  UNL11111   -0.0315
     15 C         123.0624  154.5112  144.6622 C.3     1  UNL11111    0.0064
     16 C         121.5827  152.0842  146.1283 C.ar    1  UNL11111   -0.0010
     17 C         118.8332  153.3784  146.0590 C.3     1  UNL11111   -0.0284
     18 C         121.5828  151.1555  147.1725 C.ar    1  UNL11111   -0.0514
     19 C         121.6915  149.7968  146.8843 C.ar    1  UNL11111   -0.0708
     20 C         121.7714  150.3591  144.5822 C.ar    1  UNL11111   -0.0127
     21 C         117.1541  152.9391  147.8245 C.3     1  UNL11111    0.0161
     22 C         121.7902  149.3869  145.5635 C.ar    1  UNL11111   -0.0571
     23 C         117.1318  151.4457  147.6558 C.ar    1  UNL11111    0.0248
     24 C         116.4329  150.6836  146.7372 C.ar    1  UNL11111    0.0564
     25 C         116.6767  149.2869  146.9010 C.ar    1  UNL11111   -0.0135
     26 C         117.5441  149.0301  147.9396 C.ar    1  UNL11111   -0.0275
     27 C         115.0793  150.4509  144.8395 C.3     1  UNL11111    0.0304
     28 H         116.8100  153.4049  145.8954 H       1  UNL11111    0.1338
     29 H         122.1327  155.1129  147.7412 H       1  UNL11111    0.0529
     30 H         122.4418  153.5037  148.3524 H       1  UNL11111    0.0529
     31 H         124.6088  154.5894  148.9308 H       1  UNL11111    0.0462
     32 H         124.6077  156.0516  147.9201 H       1  UNL11111    0.0462
     33 H         124.4149  152.3476  145.8460 H       1  UNL11111    0.0462
     34 H         124.4953  152.2682  147.6148 H       1  UNL11111    0.0462
     35 H         121.2797  155.4706  145.3272 H       1  UNL11111    0.0502
     36 H         120.9913  154.0859  144.2805 H       1  UNL11111    0.0502
     37 H         126.8697  154.5647  148.3548 H       1  UNL11111    0.0342
     38 H         126.6056  155.4426  146.8458 H       1  UNL11111    0.0342
     39 H         126.4490  153.5045  145.6712 H       1  UNL11111    0.0342
     40 H         126.7764  152.5681  147.1326 H       1  UNL11111    0.0342
     41 H         119.8564  154.9047  147.1823 H       1  UNL11111    0.0446
     42 H         119.9045  153.3281  147.9435 H       1  UNL11111    0.0446
     43 H         123.4378  153.5500  144.3014 H       1  UNL11111    0.0891
     44 H         123.1440  155.2079  143.8209 H       1  UNL11111    0.0891
     45 H         118.9028  153.9174  145.1083 H       1  UNL11111    0.0605
     46 H         118.9153  152.3155  145.8117 H       1  UNL11111    0.0605
     47 H         121.4829  151.4686  148.2065 H       1  UNL11111    0.1002
     48 H         121.6891  149.0664  147.6881 H       1  UNL11111    0.0906
     49 H         121.8405  150.0949  143.5310 H       1  UNL11111    0.1371
     50 H         116.1467  153.2560  148.1237 H       1  UNL11111    0.0805
     51 H         117.8063  153.2495  148.6482 H       1  UNL11111    0.0805
     52 H         121.8735  148.3380  145.3048 H       1  UNL11111    0.0980
     53 H         116.2467  148.4962  146.3011 H       1  UNL11111    0.1153
     54 H         117.8983  148.0681  148.2831 H       1  UNL11111    0.1125
     55 H         114.5048  151.0717  144.1453 H       1  UNL11111    0.1070
     56 H         114.3908  149.7270  145.2882 H       1  UNL11111    0.1070
     57 H         115.8618  149.9442  144.2641 H       1  UNL11111    0.1070
@<TRIPOS>BOND
     1     1    23   ar
     2     1    26   ar
     3     2     6    1
     4     2    15    1
     5     3    24    1
     6     3    27    1
     7     4    16   ar
     8     4    20   ar
     9     5    17    1
    10     5    21    1
    11     6     8    1
    12     6     9    1
    13     6    10    1
    14     7     8    1
    15     7    11    1
    16     7    14    1
    17     7    16    1
    18     9    12    1
    19    10    13    1
    20    11    15    1
    21    12    13    1
    22    14    17    1
    23    16    18   ar
    24    18    19   ar
    25    19    22   ar
    26    20    22   ar
    27    21    23    1
    28    23    24   ar
    29    24    25   ar
    30    25    26   ar
    31     5    28    1
    32     8    29    1
    33     8    30    1
    34     9    31    1
    35     9    32    1
    36    10    33    1
    37    10    34    1
    38    11    35    1
    39    11    36    1
    40    12    37    1
    41    12    38    1
    42    13    39    1
    43    13    40    1
    44    14    41    1
    45    14    42    1
    46    15    43    1
    47    15    44    1
    48    17    45    1
    49    17    46    1
    50    18    47    1
    51    19    48    1
    52    20    49    1
    53    21    50    1
    54    21    51    1
    55    22    52    1
    56    25    53    1
    57    26    54    1
    58    27    55    1
    59    27    56    1
    60    27    57    1
@<TRIPOS>MOLECULE
66553195
 57 60 0 0 0
SMALL
GASTEIGER

@<TRIPOS>ATOM
      1 S         117.8235  149.5065  143.0169 S.2     1  UNL11111   -0.1269
      2 O         123.8700  155.0806  145.7580 O.3     1  UNL11111   -0.4593
      3 O         117.3843  149.2590  146.8449 O.3     1  UNL11111   -0.5783
      4 N         122.0747  151.6184  144.8402 N.ar    1  UNL11111   -0.3349
      5 N         118.7599  151.8901  145.7480 N.3     1  UNL11111   -0.3404
      6 C         123.8964  154.2682  146.9359 C.3     1  UNL11111    0.0110
      7 C         121.4784  153.4702  146.3776 C.3     1  UNL11111    0.0128
      8 C         122.4684  154.0258  147.4454 C.3     1  UNL11111   -0.0152
      9 C         124.7137  155.0403  147.9863 C.3     1  UNL11111   -0.0341
     10 C         124.7664  153.0162  146.7632 C.3     1  UNL11111   -0.0341
     11 C         121.6396  154.3456  145.1052 C.3     1  UNL11111   -0.0192
     12 C         126.1701  154.8382  147.5746 C.3     1  UNL11111   -0.0539
     13 C         126.2010  153.5419  146.7700 C.3     1  UNL11111   -0.0539
     14 C         120.0235  153.6576  146.9432 C.3     1  UNL11111   -0.0315
     15 C         123.0939  154.5405  144.6916 C.3     1  UNL11111    0.0064
     16 C         121.7633  151.9832  146.1091 C.ar    1  UNL11111   -0.0010
     17 C         118.8408  153.3136  146.0195 C.3     1  UNL11111   -0.0284
     18 C         121.6864  151.0338  147.1341 C.ar    1  UNL11111   -0.0514
     19 C         121.9064  149.6890  146.8442 C.ar    1  UNL11111   -0.0708
     20 C         122.2662  150.3062  144.5823 C.ar    1  UNL11111   -0.0127
     21 C         117.6117  151.5313  144.9216 C.3     1  UNL11111    0.0161
     22 C         122.1958  149.3137  145.5411 C.ar    1  UNL11111   -0.0571
     23 C         117.6366  150.0569  144.6312 C.ar    1  UNL11111    0.0248
     24 C         117.5337  149.0008  145.5183 C.ar    1  UNL11111    0.0564
     25 C         117.5997  147.7363  144.8596 C.ar    1  UNL11111   -0.0135
     26 C         117.7580  147.8699  143.4978 C.ar    1  UNL11111   -0.0275
     27 C         117.5399  148.1271  147.6896 C.3     1  UNL11111    0.0304
     28 H         118.7123  151.3514  146.6120 H       1  UNL11111    0.1338
     29 H         122.0805  155.0011  147.7758 H       1  UNL11111    0.0529
     30 H         122.4869  153.3964  148.3435 H       1  UNL11111    0.0529
     31 H         124.5594  154.6205  148.9882 H       1  UNL11111    0.0462
     32 H         124.4648  156.1065  148.0173 H       1  UNL11111    0.0462
     33 H         124.5846  152.4576  145.8432 H       1  UNL11111    0.0462
     34 H         124.6292  152.3321  147.6097 H       1  UNL11111    0.0462
     35 H         121.2239  155.3408  145.3149 H       1  UNL11111    0.0502
     36 H         121.0736  153.9410  144.2581 H       1  UNL11111    0.0502
     37 H         126.8260  154.7904  148.4497 H       1  UNL11111    0.0342
     38 H         126.5139  155.6723  146.9522 H       1  UNL11111    0.0342
     39 H         126.5371  153.7475  145.7470 H       1  UNL11111    0.0342
     40 H         126.8911  152.8097  147.2011 H       1  UNL11111    0.0342
     41 H         119.8978  154.7138  147.2215 H       1  UNL11111    0.0446
     42 H         119.9103  153.1013  147.8836 H       1  UNL11111    0.0446
     43 H         123.5571  153.6261  144.3131 H       1  UNL11111    0.0891
     44 H         123.1350  155.2638  143.8698 H       1  UNL11111    0.0891
     45 H         117.9202  153.6412  146.5187 H       1  UNL11111    0.0605
     46 H         118.9167  153.8809  145.0861 H       1  UNL11111    0.0605
     47 H         121.4373  151.3227  148.1490 H       1  UNL11111    0.1002
     48 H         121.8369  148.9414  147.6280 H       1  UNL11111    0.0906
     49 H         122.4834  150.0683  143.5454 H       1  UNL11111    0.1371
     50 H         117.6265  152.1087  143.9893 H       1  UNL11111    0.0805
     51 H         116.6765  151.7736  145.4417 H       1  UNL11111    0.0805
     52 H         122.3560  148.2757  145.2760 H       1  UNL11111    0.0980
     53 H         117.5352  146.7696  145.3399 H       1  UNL11111    0.1153
     54 H         117.8380  147.0841  142.7597 H       1  UNL11111    0.1125
     55 H         117.4839  148.4729  148.7263 H       1  UNL11111    0.1070
     56 H         118.5192  147.6565  147.5483 H       1  UNL11111    0.1070
     57 H         116.7312  147.4054  147.5344 H       1  UNL11111    0.1070
@<TRIPOS>BOND
     1     1    23   ar
     2     1    26   ar
     3     2     6    1
     4     2    15    1
     5     3    24    1
     6     3    27    1
     7     4    16   ar
     8     4    20   ar
     9     5    17    1
    10     5    21    1
    11     6     8    1
    12     6     9    1
    13     6    10    1
    14     7     8    1
    15     7    11    1
    16     7    14    1
    17     7    16    1
    18     9    12    1
    19    10    13    1
    20    11    15    1
    21    12    13    1
    22    14    17    1
    23    16    18   ar
    24    18    19   ar
    25    19    22   ar
    26    20    22   ar
    27    21    23    1
    28    23    24   ar
    29    24    25   ar
    30    25    26   ar
    31     5    28    1
    32     8    29    1
    33     8    30    1
    34     9    31    1
    35     9    32    1
    36    10    33    1
    37    10    34    1
    38    11    35    1
    39    11    36    1
    40    12    37    1
    41    12    38    1
    42    13    39    1
    43    13    40    1
    44    14    41    1
    45    14    42    1
    46    15    43    1
    47    15    44    1
    48    17    45    1
    49    17    46    1
    50    18    47    1
    51    19    48    1
    52    20    49    1
    53    21    50    1
    54    21    51    1
    55    22    52    1
    56    25    53    1
    57    26    54    1
    58    27    55    1
    59    27    56    1
    60    27    57    1
@<TRIPOS>MOLECULE
66553195
 57 60 0 0 0
SMALL
GASTEIGER

@<TRIPOS>ATOM
      1 S         116.3494  157.7025  145.9745 S.2     1  UNL11111   -0.1269
      2 O         124.1626  154.5742  145.5937 O.3     1  UNL11111   -0.4593
      3 O         119.3574  158.9004  148.0759 O.3     1  UNL11111   -0.5783
      4 N         121.7411  151.3052  147.2492 N.ar    1  UNL11111   -0.3349
      5 N         119.1772  155.8704  145.6270 N.3     1  UNL11111   -0.3404
      6 C         124.0144  153.9192  146.8611 C.3     1  UNL11111    0.0110
      7 C         121.4829  153.5810  146.3187 C.3     1  UNL11111    0.0128
      8 C         122.5610  154.0084  147.3633 C.3     1  UNL11111   -0.0152
      9 C         124.9598  154.6386  147.8397 C.3     1  UNL11111   -0.0341
     10 C         124.6409  152.5193  146.8420 C.3     1  UNL11111   -0.0341
     11 C         121.8214  154.3492  145.0180 C.3     1  UNL11111   -0.0192
     12 C         126.3554  154.1250  147.4905 C.3     1  UNL11111   -0.0539
     13 C         126.1465  152.7774  146.8053 C.3     1  UNL11111   -0.0539
     14 C         120.0544  153.9236  146.8663 C.3     1  UNL11111   -0.0315
     15 C         123.2636  154.1241  144.5858 C.3     1  UNL11111    0.0064
     16 C         121.4707  152.0470  146.1436 C.ar    1  UNL11111   -0.0010
     17 C         119.6480  155.4030  146.9336 C.3     1  UNL11111   -0.0284
     18 C         121.1106  151.4323  144.9419 C.ar    1  UNL11111   -0.0514
     19 C         121.0780  150.0405  144.8627 C.ar    1  UNL11111   -0.0708
     20 C         121.7032  149.9581  147.1466 C.ar    1  UNL11111   -0.0127
     21 C         119.0818  157.3336  145.5587 C.3     1  UNL11111    0.0161
     22 C         121.3852  149.2851  145.9838 C.ar    1  UNL11111   -0.0571
     23 C         117.9946  157.9042  146.4216 C.ar    1  UNL11111    0.0248
     24 C         118.1187  158.6433  147.5821 C.ar    1  UNL11111    0.0564
     25 C         116.8516  159.0223  148.1172 C.ar    1  UNL11111   -0.0135
     26 C         115.8067  158.5778  147.3367 C.ar    1  UNL11111   -0.0275
     27 C         119.4024  159.9083  149.0763 C.3     1  UNL11111    0.0304
     28 H         118.2540  155.4787  145.4416 H       1  UNL11111    0.1338
     29 H         122.3825  155.0617  147.6158 H       1  UNL11111    0.0529
     30 H         122.4491  153.4604  148.3076 H       1  UNL11111    0.0529
     31 H         124.7250  154.3713  148.8776 H       1  UNL11111    0.0462
     32 H         124.9147  155.7290  147.7465 H       1  UNL11111    0.0462
     33 H         124.3490  151.9057  145.9866 H       1  UNL11111    0.0462
     34 H         124.3950  151.9724  147.7602 H       1  UNL11111    0.0462
     35 H         121.7245  155.4261  145.2018 H       1  UNL11111    0.0502
     36 H         121.1352  154.1099  144.2000 H       1  UNL11111    0.0502
     37 H         126.9772  154.0337  148.3870 H       1  UNL11111    0.0342
     38 H         126.8628  154.8172  146.8089 H       1  UNL11111    0.0342
     39 H         126.4991  152.8296  145.7686 H       1  UNL11111    0.0342
     40 H         126.7023  151.9754  147.3012 H       1  UNL11111    0.0342
     41 H         119.9706  153.5147  147.8840 H       1  UNL11111    0.0446
     42 H         119.2924  153.3858  146.2830 H       1  UNL11111    0.0446
     43 H         123.4697  153.0820  144.3261 H       1  UNL11111    0.0891
     44 H         123.4668  154.7168  143.6875 H       1  UNL11111    0.0891
     45 H         118.8346  155.5016  147.6627 H       1  UNL11111    0.0605
     46 H         120.4810  156.0116  147.2975 H       1  UNL11111    0.0605
     47 H         120.8402  152.0068  144.0638 H       1  UNL11111    0.1002
     48 H         120.8056  149.5531  143.9308 H       1  UNL11111    0.0906
     49 H         121.9430  149.4191  148.0584 H       1  UNL11111    0.1371
     50 H         118.8889  157.6096  144.5144 H       1  UNL11111    0.0805
     51 H         120.0527  157.7831  145.8003 H       1  UNL11111    0.0805
     52 H         121.3679  148.2020  145.9549 H       1  UNL11111    0.0980
     53 H         116.6934  159.5886  149.0251 H       1  UNL11111    0.1153
     54 H         114.7483  158.7246  147.5020 H       1  UNL11111    0.1125
     55 H         120.4525  160.0777  149.3333 H       1  UNL11111    0.1070
     56 H         118.8846  159.5881  149.9863 H       1  UNL11111    0.1070
     57 H         118.9929  160.8536  148.7035 H       1  UNL11111    0.1070
@<TRIPOS>BOND
     1     1    23   ar
     2     1    26   ar
     3     2     6    1
     4     2    15    1
     5     3    24    1
     6     3    27    1
     7     4    16   ar
     8     4    20   ar
     9     5    17    1
    10     5    21    1
    11     6     8    1
    12     6     9    1
    13     6    10    1
    14     7     8    1
    15     7    11    1
    16     7    14    1
    17     7    16    1
    18     9    12    1
    19    10    13    1
    20    11    15    1
    21    12    13    1
    22    14    17    1
    23    16    18   ar
    24    18    19   ar
    25    19    22   ar
    26    20    22   ar
    27    21    23    1
    28    23    24   ar
    29    24    25   ar
    30    25    26   ar
    31     5    28    1
    32     8    29    1
    33     8    30    1
    34     9    31    1
    35     9    32    1
    36    10    33    1
    37    10    34    1
    38    11    35    1
    39    11    36    1
    40    12    37    1
    41    12    38    1
    42    13    39    1
    43    13    40    1
    44    14    41    1
    45    14    42    1
    46    15    43    1
    47    15    44    1
    48    17    45    1
    49    17    46    1
    50    18    47    1
    51    19    48    1
    52    20    49    1
    53    21    50    1
    54    21    51    1
    55    22    52    1
    56    25    53    1
    57    26    54    1
    58    27    55    1
    59    27    56    1
    60    27    57    1
@<TRIPOS>MOLECULE
66553195
 57 60 0 0 0
SMALL
GASTEIGER

@<TRIPOS>ATOM
      1 S         117.9392  150.0120  148.0954 S.2     1  UNL11111   -0.1269
      2 O         123.9649  155.1108  145.7554 O.3     1  UNL11111   -0.4593
      3 O         114.8817  152.1260  147.0566 O.3     1  UNL11111   -0.5783
      4 N         122.0279  151.3101  147.3560 N.ar    1  UNL11111   -0.3349
      5 N         117.7392  153.7054  147.3499 N.3     1  UNL11111   -0.3404
      6 C         124.0849  154.2677  146.9086 C.3     1  UNL11111    0.0110
      7 C         121.5811  153.6101  146.6223 C.3     1  UNL11111    0.0128
      8 C         122.7179  154.0834  147.5820 C.3     1  UNL11111   -0.0152
      9 C         125.0653  154.9662  147.8660 C.3     1  UNL11111   -0.0341
     10 C         124.8582  152.9803  146.5965 C.3     1  UNL11111   -0.0341
     11 C         121.6217  154.5594  145.3985 C.3     1  UNL11111   -0.0192
     12 C         126.4477  154.7015  147.2731 C.3     1  UNL11111   -0.0539
     13 C         126.3067  153.4372  146.4296 C.3     1  UNL11111   -0.0539
     14 C         120.2288  153.7844  147.3923 C.3     1  UNL11111   -0.0315
     15 C         123.0161  154.6692  144.7935 C.3     1  UNL11111    0.0064
     16 C         121.7411  152.1162  146.3009 C.ar    1  UNL11111   -0.0010
     17 C         118.9644  153.4192  146.5983 C.3     1  UNL11111   -0.0284
     18 C         121.5447  151.5800  145.0271 C.ar    1  UNL11111   -0.0514
     19 C         121.6687  150.2044  144.8327 C.ar    1  UNL11111   -0.0708
     20 C         122.1380  149.9805  147.1436 C.ar    1  UNL11111   -0.0127
     21 C         117.4561  152.7408  148.4218 C.3     1  UNL11111    0.0161
     22 C         121.9723  149.3856  145.9094 C.ar    1  UNL11111   -0.0571
     23 C         116.9699  151.4154  147.9048 C.ar    1  UNL11111    0.0248
     24 C         115.7705  151.1235  147.2817 C.ar    1  UNL11111    0.0564
     25 C         115.6598  149.7404  146.9492 C.ar    1  UNL11111   -0.0135
     26 C         116.7715  149.0247  147.3359 C.ar    1  UNL11111   -0.0275
     27 C         113.6342  151.7105  146.5180 C.3     1  UNL11111    0.0304
     28 H         116.9400  153.6836  146.7142 H       1  UNL11111    0.1338
     29 H         122.4221  155.0659  147.9799 H       1  UNL11111    0.0529
     30 H         122.8083  153.4277  148.4573 H       1  UNL11111    0.0529
     31 H         125.0119  154.5267  148.8699 H       1  UNL11111    0.0462
     32 H         124.8804  156.0424  147.9508 H       1  UNL11111    0.0462
     33 H         124.5275  152.4601  145.6949 H       1  UNL11111    0.0462
     34 H         124.7972  152.2796  147.4382 H       1  UNL11111    0.0462
     35 H         121.3262  155.5642  145.7317 H       1  UNL11111    0.0502
     36 H         120.9060  154.2743  144.6214 H       1  UNL11111    0.0502
     37 H         127.1993  154.5842  148.0604 H       1  UNL11111    0.0342
     38 H         126.7633  155.5395  146.6410 H       1  UNL11111    0.0342
     39 H         126.5154  153.6674  145.3783 H       1  UNL11111    0.0342
     40 H         127.0094  152.6578  146.7407 H       1  UNL11111    0.0342
     41 H         120.1372  154.8306  147.7168 H       1  UNL11111    0.0446
     42 H         120.2693  153.1877  148.3124 H       1  UNL11111    0.0446
     43 H         123.3479  153.7323  144.3376 H       1  UNL11111    0.0891
     44 H         123.0006  155.4150  143.9915 H       1  UNL11111    0.0891
     45 H         118.9261  154.0375  145.6952 H       1  UNL11111    0.0605
     46 H         118.9832  152.3803  146.2571 H       1  UNL11111    0.0605
     47 H         121.2867  152.1969  144.1750 H       1  UNL11111    0.1002
     48 H         121.5204  149.7769  143.8451 H       1  UNL11111    0.0906
     49 H         122.3690  149.3899  148.0252 H       1  UNL11111    0.1371
     50 H         116.6594  153.1694  149.0433 H       1  UNL11111    0.0805
     51 H         118.3116  152.6281  149.0959 H       1  UNL11111    0.0805
     52 H         122.0707  148.3130  145.7917 H       1  UNL11111    0.0980
     53 H         114.8185  149.2749  146.4535 H       1  UNL11111    0.1153
     54 H         116.9538  147.9663  147.2113 H       1  UNL11111    0.1125
     55 H         112.9985  152.5963  146.4235 H       1  UNL11111    0.1070
     56 H         113.1275  151.0063  147.1868 H       1  UNL11111    0.1070
     57 H         113.7592  151.2818  145.5181 H       1  UNL11111    0.1070
@<TRIPOS>BOND
     1     1    23   ar
     2     1    26   ar
     3     2     6    1
     4     2    15    1
     5     3    24    1
     6     3    27    1
     7     4    16   ar
     8     4    20   ar
     9     5    17    1
    10     5    21    1
    11     6     8    1
    12     6     9    1
    13     6    10    1
    14     7     8    1
    15     7    11    1
    16     7    14    1
    17     7    16    1
    18     9    12    1
    19    10    13    1
    20    11    15    1
    21    12    13    1
    22    14    17    1
    23    16    18   ar
    24    18    19   ar
    25    19    22   ar
    26    20    22   ar
    27    21    23    1
    28    23    24   ar
    29    24    25   ar
    30    25    26   ar
    31     5    28    1
    32     8    29    1
    33     8    30    1
    34     9    31    1
    35     9    32    1
    36    10    33    1
    37    10    34    1
    38    11    35    1
    39    11    36    1
    40    12    37    1
    41    12    38    1
    42    13    39    1
    43    13    40    1
    44    14    41    1
    45    14    42    1
    46    15    43    1
    47    15    44    1
    48    17    45    1
    49    17    46    1
    50    18    47    1
    51    19    48    1
    52    20    49    1
    53    21    50    1
    54    21    51    1
    55    22    52    1
    56    25    53    1
    57    26    54    1
    58    27    55    1
    59    27    56    1
    60    27    57    1
@<TRIPOS>MOLECULE
66553195
 57 60 0 0 0
SMALL
GASTEIGER

@<TRIPOS>ATOM
      1 S         116.1772  153.2221  142.7021 S.2     1  UNL11111   -0.1269
      2 O         123.9788  154.7944  145.7898 O.3     1  UNL11111   -0.4593
      3 O         117.2161  156.3711  144.6820 O.3     1  UNL11111   -0.5783
      4 N         121.6397  151.2034  147.2515 N.ar    1  UNL11111   -0.3349
      5 N         117.5579  153.9091  146.3372 N.3     1  UNL11111   -0.3404
      6 C         123.8564  154.0293  146.9964 C.3     1  UNL11111    0.0110
      7 C         121.4027  153.4666  146.3279 C.3     1  UNL11111    0.0128
      8 C         122.3874  153.9545  147.4370 C.3     1  UNL11111   -0.0152
      9 C         124.7017  154.7485  148.0613 C.3     1  UNL11111   -0.0341
     10 C         124.5985  152.6905  146.8995 C.3     1  UNL11111   -0.0341
     11 C         121.7044  154.3289  145.0734 C.3     1  UNL11111   -0.0192
     12 C         126.1467  154.3805  147.7292 C.3     1  UNL11111   -0.0539
     13 C         126.0769  153.0732  146.9443 C.3     1  UNL11111   -0.0539
     14 C         119.9528  153.7681  146.8342 C.3     1  UNL11111   -0.0315
     15 C         123.1832  154.3261  144.7092 C.3     1  UNL11111    0.0064
     16 C         121.5288  151.9503  146.1230 C.ar    1  UNL11111   -0.0010
     17 C         118.8243  153.3209  145.8932 C.3     1  UNL11111   -0.0284
     18 C         121.4696  151.3416  144.8678 C.ar    1  UNL11111   -0.0514
     19 C         121.5543  149.9529  144.7713 C.ar    1  UNL11111   -0.0708
     20 C         121.7183  149.8598  147.1326 C.ar    1  UNL11111   -0.0127
     21 C         116.4393  153.5663  145.4501 C.3     1  UNL11111    0.0161
     22 C         121.6840  149.1939  145.9240 C.ar    1  UNL11111   -0.0571
     23 C         116.5414  154.1824  144.0791 C.ar    1  UNL11111    0.0248
     24 C         116.8921  155.4713  143.7161 C.ar    1  UNL11111    0.0564
     25 C         116.8561  155.6620  142.3021 C.ar    1  UNL11111   -0.0135
     26 C         116.4830  154.5171  141.6340 C.ar    1  UNL11111   -0.0275
     27 C         117.7928  157.5787  144.2033 C.3     1  UNL11111    0.0304
     28 H         117.6396  154.9283  146.3377 H       1  UNL11111    0.1338
     29 H         122.0844  154.9746  147.7177 H       1  UNL11111    0.0529
     30 H         122.2926  153.3583  148.3534 H       1  UNL11111    0.0529
     31 H         124.4573  154.3836  149.0667 H       1  UNL11111    0.0462
     32 H         124.5661  155.8352  148.0468 H       1  UNL11111    0.0462
     33 H         124.3901  152.1209  145.9912 H       1  UNL11111    0.0462
     34 H         124.3651  152.0560  147.7632 H       1  UNL11111    0.0462
     35 H         121.4204  155.3680  145.2919 H       1  UNL11111    0.0502
     36 H         121.1131  154.0317  144.2023 H       1  UNL11111    0.0502
     37 H         126.7465  154.2772  148.6392 H       1  UNL11111    0.0342
     38 H         126.6128  155.1604  147.1162 H       1  UNL11111    0.0342
     39 H         126.4610  153.2288  145.9294 H       1  UNL11111    0.0342
     40 H         126.6802  152.2854  147.4064 H       1  UNL11111    0.0342
     41 H         119.8654  154.8505  147.0062 H       1  UNL11111    0.0446
     42 H         119.7952  153.2950  147.8140 H       1  UNL11111    0.0446
     43 H         123.5298  153.3428  144.3792 H       1  UNL11111    0.0891
     44 H         123.3465  155.0104  143.8697 H       1  UNL11111    0.0891
     45 H         119.0487  153.6337  144.8703 H       1  UNL11111    0.0605
     46 H         118.7416  152.2285  145.9055 H       1  UNL11111    0.0605
     47 H         121.3478  151.9123  143.9550 H       1  UNL11111    0.1002
     48 H         121.5111  149.4692  143.7994 H       1  UNL11111    0.0906
     49 H         121.8106  149.3182  148.0695 H       1  UNL11111    0.1371
     50 H         115.5169  153.9347  145.9159 H       1  UNL11111    0.0805
     51 H         116.3379  152.4753  145.3985 H       1  UNL11111    0.0805
     52 H         121.7489  148.1130  145.8826 H       1  UNL11111    0.0980
     53 H         117.0833  156.5836  141.7831 H       1  UNL11111    0.1153
     54 H         116.3717  154.3798  140.5671 H       1  UNL11111    0.1125
     55 H         118.0838  158.1778  145.0715 H       1  UNL11111    0.1070
     56 H         117.0674  158.1594  143.6242 H       1  UNL11111    0.1070
     57 H         118.6971  157.3820  143.6167 H       1  UNL11111    0.1070
@<TRIPOS>BOND
     1     1    23   ar
     2     1    26   ar
     3     2     6    1
     4     2    15    1
     5     3    24    1
     6     3    27    1
     7     4    16   ar
     8     4    20   ar
     9     5    17    1
    10     5    21    1
    11     6     8    1
    12     6     9    1
    13     6    10    1
    14     7     8    1
    15     7    11    1
    16     7    14    1
    17     7    16    1
    18     9    12    1
    19    10    13    1
    20    11    15    1
    21    12    13    1
    22    14    17    1
    23    16    18   ar
    24    18    19   ar
    25    19    22   ar
    26    20    22   ar
    27    21    23    1
    28    23    24   ar
    29    24    25   ar
    30    25    26   ar
    31     5    28    1
    32     8    29    1
    33     8    30    1
    34     9    31    1
    35     9    32    1
    36    10    33    1
    37    10    34    1
    38    11    35    1
    39    11    36    1
    40    12    37    1
    41    12    38    1
    42    13    39    1
    43    13    40    1
    44    14    41    1
    45    14    42    1
    46    15    43    1
    47    15    44    1
    48    17    45    1
    49    17    46    1
    50    18    47    1
    51    19    48    1
    52    20    49    1
    53    21    50    1
    54    21    51    1
    55    22    52    1
    56    25    53    1
    57    26    54    1
    58    27    55    1
    59    27    56    1
    60    27    57    1
@<TRIPOS>MOLECULE
66553195
 57 60 0 0 0
SMALL
GASTEIGER

@<TRIPOS>ATOM
      1 S         114.4582  153.1787  146.8733 S.2     1  UNL11111   -0.1269
      2 O         124.0848  154.9849  145.7720 O.3     1  UNL11111   -0.4593
      3 O         116.3501  153.0697  150.2373 O.3     1  UNL11111   -0.5783
      4 N         121.6605  151.3427  147.0879 N.ar    1  UNL11111   -0.3349
      5 N         117.6116  153.9324  146.5138 N.3     1  UNL11111   -0.3404
      6 C         123.9843  154.1439  146.9286 C.3     1  UNL11111    0.0110
      7 C         121.5054  153.6631  146.2989 C.3     1  UNL11111    0.0128
      8 C         122.5282  154.0641  147.4072 C.3     1  UNL11111   -0.0152
      9 C         124.8729  154.7763  148.0130 C.3     1  UNL11111   -0.0341
     10 C         124.6961  152.8008  146.7226 C.3     1  UNL11111   -0.0341
     11 C         121.7792  154.5963  145.0934 C.3     1  UNL11111   -0.0192
     12 C         126.3001  154.4071  147.6136 C.3     1  UNL11111   -0.0539
     13 C         126.1837  153.1474  146.7599 C.3     1  UNL11111   -0.0539
     14 C         120.0744  153.9338  146.8732 C.3     1  UNL11111   -0.0315
     15 C         123.2483  154.6065  144.6870 C.3     1  UNL11111    0.0064
     16 C         121.6045  152.1579  146.0025 C.ar    1  UNL11111   -0.0010
     17 C         118.9158  153.6667  145.8999 C.3     1  UNL11111   -0.0284
     18 C         121.5768  151.6246  144.7129 C.ar    1  UNL11111   -0.0514
     19 C         121.6362  150.2418  144.5383 C.ar    1  UNL11111   -0.0708
     20 C         121.7174  150.0070  146.8938 C.ar    1  UNL11111   -0.0127
     21 C         117.1838  152.8265  147.3826 C.3     1  UNL11111    0.0161
     22 C         121.7105  149.4139  145.6479 C.ar    1  UNL11111   -0.0571
     23 C         115.8066  153.0704  147.9343 C.ar    1  UNL11111    0.0248
     24 C         115.4167  153.1712  149.2561 C.ar    1  UNL11111    0.0564
     25 C         114.0147  153.4001  149.3906 C.ar    1  UNL11111   -0.0135
     26 C         113.3757  153.4265  148.1704 C.ar    1  UNL11111   -0.0275
     27 C         115.8283  152.7496  151.5191 C.3     1  UNL11111    0.0304
     28 H         116.9093  154.0270  145.7803 H       1  UNL11111    0.1338
     29 H         122.2512  155.0687  147.7607 H       1  UNL11111    0.0529
     30 H         122.4497  153.4114  148.2860 H       1  UNL11111    0.0529
     31 H         124.6509  154.3493  148.9990 H       1  UNL11111    0.0462
     32 H         124.7574  155.8637  148.0743 H       1  UNL11111    0.0462
     33 H         124.4564  152.3001  145.7821 H       1  UNL11111    0.0462
     34 H         124.4669  152.1124  147.5453 H       1  UNL11111    0.0462
     35 H         121.5098  155.6216  145.3832 H       1  UNL11111    0.0502
     36 H         121.1586  154.3525  144.2253 H       1  UNL11111    0.0502
     37 H         126.9280  154.2450  148.4956 H       1  UNL11111    0.0342
     38 H         126.7577  155.2135  147.0292 H       1  UNL11111    0.0342
     39 H         126.5540  153.3490  145.7479 H       1  UNL11111    0.0342
     40 H         126.7753  152.3214  147.1672 H       1  UNL11111    0.0342
     41 H         120.0102  154.9824  147.1969 H       1  UNL11111    0.0446
     42 H         119.9413  153.3335  147.7822 H       1  UNL11111    0.0446
     43 H         123.5744  153.6471  144.2763 H       1  UNL11111    0.0891
     44 H         123.3949  155.3477  143.8940 H       1  UNL11111    0.0891
     45 H         119.0110  154.3464  145.0462 H       1  UNL11111    0.0605
     46 H         118.9439  152.6502  145.4941 H       1  UNL11111    0.0605
     47 H         121.5030  152.2497  143.8311 H       1  UNL11111    0.1002
     48 H         121.6198  149.8162  143.5388 H       1  UNL11111    0.0906
     49 H         121.7687  149.4105  147.8000 H       1  UNL11111    0.1371
     50 H         117.8876  152.7031  148.2120 H       1  UNL11111    0.0805
     51 H         117.1736  151.8817  146.8237 H       1  UNL11111    0.0805
     52 H         121.7570  148.3361  145.5450 H       1  UNL11111    0.0980
     53 H         113.4862  153.5423  150.3233 H       1  UNL11111    0.1153
     54 H         112.3226  153.5774  147.9783 H       1  UNL11111    0.1125
     55 H         116.6747  152.5872  152.1934 H       1  UNL11111    0.1070
     56 H         115.2440  151.8232  151.4878 H       1  UNL11111    0.1070
     57 H         115.2335  153.5746  151.9240 H       1  UNL11111    0.1070
@<TRIPOS>BOND
     1     1    23   ar
     2     1    26   ar
     3     2     6    1
     4     2    15    1
     5     3    24    1
     6     3    27    1
     7     4    16   ar
     8     4    20   ar
     9     5    17    1
    10     5    21    1
    11     6     8    1
    12     6     9    1
    13     6    10    1
    14     7     8    1
    15     7    11    1
    16     7    14    1
    17     7    16    1
    18     9    12    1
    19    10    13    1
    20    11    15    1
    21    12    13    1
    22    14    17    1
    23    16    18   ar
    24    18    19   ar
    25    19    22   ar
    26    20    22   ar
    27    21    23    1
    28    23    24   ar
    29    24    25   ar
    30    25    26   ar
    31     5    28    1
    32     8    29    1
    33     8    30    1
    34     9    31    1
    35     9    32    1
    36    10    33    1
    37    10    34    1
    38    11    35    1
    39    11    36    1
    40    12    37    1
    41    12    38    1
    42    13    39    1
    43    13    40    1
    44    14    41    1
    45    14    42    1
    46    15    43    1
    47    15    44    1
    48    17    45    1
    49    17    46    1
    50    18    47    1
    51    19    48    1
    52    20    49    1
    53    21    50    1
    54    21    51    1
    55    22    52    1
    56    25    53    1
    57    26    54    1
    58    27    55    1
    59    27    56    1
    60    27    57    1
@<TRIPOS>MOLECULE
66553195
 57 60 0 0 0
SMALL
GASTEIGER

@<TRIPOS>ATOM
      1 S         118.0267  150.5816  148.3974 S.2     1  UNL11111   -0.1269
      2 O         124.0582  154.9715  145.6377 O.3     1  UNL11111   -0.4593
      3 O         114.9616  152.0287  146.5515 O.3     1  UNL11111   -0.5783
      4 N         121.8175  151.3924  147.2970 N.ar    1  UNL11111   -0.3349
      5 N         117.6372  153.9548  146.7599 N.3     1  UNL11111   -0.3404
      6 C         124.0345  154.2048  146.8489 C.3     1  UNL11111    0.0110
      7 C         121.5305  153.6567  146.3914 C.3     1  UNL11111    0.0128
      8 C         122.6082  154.1391  147.4128 C.3     1  UNL11111   -0.0152
      9 C         124.9717  154.9151  147.8405 C.3     1  UNL11111   -0.0341
     10 C         124.7553  152.8604  146.6874 C.3     1  UNL11111   -0.0341
     11 C         121.7231  154.5197  145.1193 C.3     1  UNL11111   -0.0192
     12 C         126.3811  154.5351  147.3907 C.3     1  UNL11111   -0.0539
     13 C         126.2362  153.2287  146.6152 C.3     1  UNL11111   -0.0539
     14 C         120.1301  153.9461  147.0304 C.3     1  UNL11111   -0.0315
     15 C         123.1663  154.5155  144.6289 C.3     1  UNL11111    0.0064
     16 C         121.6386  152.1392  146.1769 C.ar    1  UNL11111   -0.0010
     17 C         118.9182  153.5498  146.1716 C.3     1  UNL11111   -0.0284
     18 C         121.4955  151.5298  144.9291 C.ar    1  UNL11111   -0.0514
     19 C         121.5595  150.1401  144.8304 C.ar    1  UNL11111   -0.0708
     20 C         121.8722  150.0480  147.1766 C.ar    1  UNL11111   -0.0127
     21 C         117.2778  153.2362  147.9905 C.3     1  UNL11111    0.0161
     22 C         121.7525  149.3810  145.9743 C.ar    1  UNL11111   -0.0571
     23 C         116.9759  151.7818  147.7638 C.ar    1  UNL11111    0.0248
     24 C         115.8998  151.2169  147.1051 C.ar    1  UNL11111    0.0564
     25 C         115.9603  149.7910  147.1003 C.ar    1  UNL11111   -0.0135
     26 C         117.0690  149.3176  147.7667 C.ar    1  UNL11111   -0.0275
     27 C         113.8134  151.3577  146.0507 C.3     1  UNL11111    0.0304
     28 H         116.8920  153.7737  146.0849 H       1  UNL11111    0.1338
     29 H         122.3357  155.1609  147.7176 H       1  UNL11111    0.0529
     30 H         122.5885  153.5432  148.3341 H       1  UNL11111    0.0529
     31 H         124.8080  154.5511  148.8625 H       1  UNL11111    0.0462
     32 H         124.8450  156.0030  147.8380 H       1  UNL11111    0.0462
     33 H         124.4700  152.2972  145.7962 H       1  UNL11111    0.0462
     34 H         124.5862  152.2237  147.5644 H       1  UNL11111    0.0462
     35 H         121.4600  155.5584  145.3637 H       1  UNL11111    0.0502
     36 H         121.0572  154.2220  144.3036 H       1  UNL11111    0.0502
     37 H         127.0530  154.4268  148.2483 H       1  UNL11111    0.0342
     38 H         126.8016  155.3112  146.7410 H       1  UNL11111    0.0342
     39 H         126.5411  153.3797  145.5731 H       1  UNL11111    0.0342
     40 H         126.8658  152.4349  147.0296 H       1  UNL11111    0.0342
     41 H         120.0559  155.0190  147.2564 H       1  UNL11111    0.0446
     42 H         120.0764  153.4293  147.9970 H       1  UNL11111    0.0446
     43 H         123.4793  153.5336  144.2633 H       1  UNL11111    0.0891
     44 H         123.2589  155.2048  143.7827 H       1  UNL11111    0.0891
     45 H         118.9882  154.0608  145.2055 H       1  UNL11111    0.0605
     46 H         118.9156  152.4786  145.9496 H       1  UNL11111    0.0605
     47 H         121.3223  152.1009  144.0250 H       1  UNL11111    0.1002
     48 H         121.4504  149.6557  143.8641 H       1  UNL11111    0.0906
     49 H         122.0164  149.5071  148.1072 H       1  UNL11111    0.1371
     50 H         116.3709  153.7087  148.3897 H       1  UNL11111    0.0805
     51 H         118.0345  153.3828  148.7685 H       1  UNL11111    0.0805
     52 H         121.8017  148.2995  145.9313 H       1  UNL11111    0.0980
     53 H         115.2402  149.1294  146.6380 H       1  UNL11111    0.1153
     54 H         117.3620  148.2879  147.9175 H       1  UNL11111    0.1125
     55 H         113.1112  152.1167  145.6925 H       1  UNL11111    0.1070
     56 H         113.3121  150.7850  146.8387 H       1  UNL11111    0.1070
     57 H         114.0712  150.7151  145.2023 H       1  UNL11111    0.1070
@<TRIPOS>BOND
     1     1    23   ar
     2     1    26   ar
     3     2     6    1
     4     2    15    1
     5     3    24    1
     6     3    27    1
     7     4    16   ar
     8     4    20   ar
     9     5    17    1
    10     5    21    1
    11     6     8    1
    12     6     9    1
    13     6    10    1
    14     7     8    1
    15     7    11    1
    16     7    14    1
    17     7    16    1
    18     9    12    1
    19    10    13    1
    20    11    15    1
    21    12    13    1
    22    14    17    1
    23    16    18   ar
    24    18    19   ar
    25    19    22   ar
    26    20    22   ar
    27    21    23    1
    28    23    24   ar
    29    24    25   ar
    30    25    26   ar
    31     5    28    1
    32     8    29    1
    33     8    30    1
    34     9    31    1
    35     9    32    1
    36    10    33    1
    37    10    34    1
    38    11    35    1
    39    11    36    1
    40    12    37    1
    41    12    38    1
    42    13    39    1
    43    13    40    1
    44    14    41    1
    45    14    42    1
    46    15    43    1
    47    15    44    1
    48    17    45    1
    49    17    46    1
    50    18    47    1
    51    19    48    1
    52    20    49    1
    53    21    50    1
    54    21    51    1
    55    22    52    1
    56    25    53    1
    57    26    54    1
    58    27    55    1
    59    27    56    1
    60    27    57    1
@<TRIPOS>MOLECULE
66553195
 57 60 0 0 0
SMALL
GASTEIGER

@<TRIPOS>ATOM
      1 S         118.2116  158.6873  143.7512 S.2     1  UNL11111   -0.1269
      2 O         124.2273  154.6153  145.6511 O.3     1  UNL11111   -0.4593
      3 O         121.6527  159.4473  145.3281 O.3     1  UNL11111   -0.5783
      4 N         121.4998  151.6134  144.8756 N.ar    1  UNL11111   -0.3349
      5 N         119.6773  156.3521  145.7879 N.3     1  UNL11111   -0.3404
      6 C         123.9827  154.0387  146.9387 C.3     1  UNL11111    0.0110
      7 C         121.4957  153.6800  146.2579 C.3     1  UNL11111    0.0128
      8 C         122.4995  154.1803  147.3333 C.3     1  UNL11111   -0.0152
      9 C         124.8740  154.7987  147.9370 C.3     1  UNL11111   -0.0341
     10 C         124.5769  152.6284  147.0463 C.3     1  UNL11111   -0.0341
     11 C         121.9229  154.3487  144.9244 C.3     1  UNL11111   -0.0192
     12 C         126.2785  154.2418  147.7136 C.3     1  UNL11111   -0.0539
     13 C         126.0869  152.8537  147.1091 C.3     1  UNL11111   -0.0539
     14 C         120.0133  154.0371  146.6312 C.3     1  UNL11111   -0.0315
     15 C         123.3949  154.1115  144.6077 C.3     1  UNL11111    0.0064
     16 C         121.5002  152.1371  146.1272 C.ar    1  UNL11111   -0.0010
     17 C         119.6382  155.4908  146.9579 C.3     1  UNL11111   -0.0284
     18 C         121.4328  151.3068  147.2508 C.ar    1  UNL11111   -0.0514
     19 C         121.4048  149.9232  147.0848 C.ar    1  UNL11111   -0.0708
     20 C         121.4728  150.2690  144.7404 C.ar    1  UNL11111   -0.0127
     21 C         119.3406  157.7377  146.1156 C.3     1  UNL11111    0.0161
     22 C         121.4293  149.3902  145.8050 C.ar    1  UNL11111   -0.0571
     23 C         119.4865  158.6012  144.8979 C.ar    1  UNL11111    0.0248
     24 C         120.5615  159.3840  144.5225 C.ar    1  UNL11111    0.0564
     25 C         120.3310  160.0569  143.2855 C.ar    1  UNL11111   -0.0135
     26 C         119.0934  159.7610  142.7579 C.ar    1  UNL11111   -0.0275
     27 C         122.8193  159.9676  144.7064 C.3     1  UNL11111    0.0304
     28 H         119.0349  156.0156  145.0717 H       1  UNL11111    0.1338
     29 H         122.3253  155.2549  147.4756 H       1  UNL11111    0.0529
     30 H         122.3160  153.7191  148.3101 H       1  UNL11111    0.0529
     31 H         124.5645  154.5966  148.9700 H       1  UNL11111    0.0462
     32 H         124.8581  155.8824  147.7783 H       1  UNL11111    0.0462
     33 H         124.3373  151.9713  146.2073 H       1  UNL11111    0.0462
     34 H         124.2486  152.1402  147.9719 H       1  UNL11111    0.0462
     35 H         121.8069  155.4336  145.0071 H       1  UNL11111    0.0502
     36 H         121.2961  154.0241  144.0857 H       1  UNL11111    0.0502
     37 H         126.8420  154.2034  148.6513 H       1  UNL11111    0.0342
     38 H         126.8400  154.8777  147.0195 H       1  UNL11111    0.0342
     39 H         126.5191  152.8244  146.1020 H       1  UNL11111    0.0342
     40 H         126.5821  152.0776  147.7012 H       1  UNL11111    0.0342
     41 H         119.7286  153.4559  147.5200 H       1  UNL11111    0.0446
     42 H         119.3488  153.6793  145.8307 H       1  UNL11111    0.0446
     43 H         123.6290  153.0616  144.4131 H       1  UNL11111    0.0891
     44 H         123.6581  154.6605  143.6971 H       1  UNL11111    0.0891
     45 H         118.6175  155.4886  147.3620 H       1  UNL11111    0.0605
     46 H         120.2858  155.8772  147.7512 H       1  UNL11111    0.0605
     47 H         121.3932  151.7158  148.2545 H       1  UNL11111    0.1002
     48 H         121.3585  149.2690  147.9507 H       1  UNL11111    0.0906
     49 H         121.4856  149.9084  143.7160 H       1  UNL11111    0.1371
     50 H         120.0047  158.1104  146.9050 H       1  UNL11111    0.0805
     51 H         118.3159  157.8019  146.5028 H       1  UNL11111    0.0805
     52 H         121.4077  148.3193  145.6406 H       1  UNL11111    0.0980
     53 H         121.0229  160.7287  142.7957 H       1  UNL11111    0.1153
     54 H         118.6622  160.1271  141.8364 H       1  UNL11111    0.1125
     55 H         123.6510  159.8576  145.4090 H       1  UNL11111    0.1070
     56 H         122.7055  161.0350  144.4899 H       1  UNL11111    0.1070
     57 H         123.0723  159.4086  143.7987 H       1  UNL11111    0.1070
@<TRIPOS>BOND
     1     1    23   ar
     2     1    26   ar
     3     2     6    1
     4     2    15    1
     5     3    24    1
     6     3    27    1
     7     4    16   ar
     8     4    20   ar
     9     5    17    1
    10     5    21    1
    11     6     8    1
    12     6     9    1
    13     6    10    1
    14     7     8    1
    15     7    11    1
    16     7    14    1
    17     7    16    1
    18     9    12    1
    19    10    13    1
    20    11    15    1
    21    12    13    1
    22    14    17    1
    23    16    18   ar
    24    18    19   ar
    25    19    22   ar
    26    20    22   ar
    27    21    23    1
    28    23    24   ar
    29    24    25   ar
    30    25    26   ar
    31     5    28    1
    32     8    29    1
    33     8    30    1
    34     9    31    1
    35     9    32    1
    36    10    33    1
    37    10    34    1
    38    11    35    1
    39    11    36    1
    40    12    37    1
    41    12    38    1
    42    13    39    1
    43    13    40    1
    44    14    41    1
    45    14    42    1
    46    15    43    1
    47    15    44    1
    48    17    45    1
    49    17    46    1
    50    18    47    1
    51    19    48    1
    52    20    49    1
    53    21    50    1
    54    21    51    1
    55    22    52    1
    56    25    53    1
    57    26    54    1
    58    27    55    1
    59    27    56    1
    60    27    57    1
@<TRIPOS>MOLECULE
66553195
 57 60 0 0 0
SMALL
GASTEIGER

@<TRIPOS>ATOM
      1 S         118.5130  157.0838  150.7061 S.2     1  UNL11111   -0.1269
      2 O         123.9895  154.7996  145.7789 O.3     1  UNL11111   -0.4593
      3 O         120.0384  153.5452  150.5029 O.3     1  UNL11111   -0.5783
      4 N         121.6414  151.3347  147.1319 N.ar    1  UNL11111   -0.3349
      5 N         118.1411  155.5468  147.7091 N.3     1  UNL11111   -0.3404
      6 C         123.8457  154.0332  146.9833 C.3     1  UNL11111    0.0110
      7 C         121.3403  153.6650  146.3704 C.3     1  UNL11111    0.0128
      8 C         122.3834  154.0407  147.4653 C.3     1  UNL11111   -0.0152
      9 C         124.7558  154.6927  148.0350 C.3     1  UNL11111   -0.0341
     10 C         124.5125  152.6579  146.8562 C.3     1  UNL11111   -0.0341
     11 C         121.6669  154.5469  145.1398 C.3     1  UNL11111   -0.0192
     12 C         126.1704  154.2488  147.6672 C.3     1  UNL11111   -0.0539
     13 C         126.0103  152.9590  146.8673 C.3     1  UNL11111   -0.0539
     14 C         119.8813  153.9231  146.8798 C.3     1  UNL11111   -0.0315
     15 C         123.1243  154.4095  144.7188 C.3     1  UNL11111    0.0064
     16 C         121.3810  152.1493  146.0761 C.ar    1  UNL11111   -0.0010
     17 C         119.5155  155.3752  147.2233 C.3     1  UNL11111   -0.0284
     18 C         121.0762  151.6162  144.8218 C.ar    1  UNL11111   -0.0514
     19 C         121.0834  150.2333  144.6416 C.ar    1  UNL11111   -0.0708
     20 C         121.6401  149.9983  146.9324 C.ar    1  UNL11111   -0.0127
     21 C         117.8741  154.9474  149.0245 C.3     1  UNL11111    0.0161
     22 C         121.3743  149.4050  145.7147 C.ar    1  UNL11111   -0.0571
     23 C         118.7375  155.4821  150.1310 C.ar    1  UNL11111    0.0248
     24 C         119.7462  154.8329  150.8189 C.ar    1  UNL11111    0.0564
     25 C         120.3488  155.6679  151.8062 C.ar    1  UNL11111   -0.0135
     26 C         119.7751  156.9197  151.8447 C.ar    1  UNL11111   -0.0275
     27 C         121.1636  152.9997  151.1762 C.3     1  UNL11111    0.0304
     28 H         117.4935  155.1384  147.0381 H       1  UNL11111    0.1338
     29 H         122.1764  155.0671  147.7924 H       1  UNL11111    0.0529
     30 H         122.2715  153.4179  148.3606 H       1  UNL11111    0.0529
     31 H         124.5133  154.3321  149.0425 H       1  UNL11111    0.0462
     32 H         124.6810  155.7855  148.0333 H       1  UNL11111    0.0462
     33 H         124.2512  152.1113  145.9472 H       1  UNL11111    0.0462
     34 H         124.2688  152.0286  147.7207 H       1  UNL11111    0.0462
     35 H         121.5160  155.6011  145.4029 H       1  UNL11111    0.0502
     36 H         121.0018  154.3459  144.2943 H       1  UNL11111    0.0502
     37 H         126.7816  154.0988  148.5630 H       1  UNL11111    0.0342
     38 H         126.6676  155.0098  147.0548 H       1  UNL11111    0.0342
     39 H         126.3766  153.1082  145.8449 H       1  UNL11111    0.0342
     40 H         126.5812  152.1332  147.3034 H       1  UNL11111    0.0342
     41 H         119.7142  153.2914  147.7609 H       1  UNL11111    0.0446
     42 H         119.1699  153.5696  146.1193 H       1  UNL11111    0.0446
     43 H         123.3709  153.4012  144.3746 H       1  UNL11111    0.0891
     44 H         123.3213  155.0840  143.8787 H       1  UNL11111    0.0891
     45 H         120.2197  155.8163  147.9324 H       1  UNL11111    0.0605
     46 H         119.5880  155.9835  146.3157 H       1  UNL11111    0.0605
     47 H         120.8197  152.2445  143.9772 H       1  UNL11111    0.1002
     48 H         120.8534  149.8080  143.6686 H       1  UNL11111    0.0906
     49 H         121.8646  149.4002  147.8105 H       1  UNL11111    0.1371
     50 H         117.9451  153.8556  148.9680 H       1  UNL11111    0.0805
     51 H         116.8252  155.1523  149.2751 H       1  UNL11111    0.0805
     52 H         121.3846  148.3268  145.6074 H       1  UNL11111    0.0980
     53 H         121.1584  155.3842  152.4648 H       1  UNL11111    0.1153
     54 H         120.0330  157.7470  152.4911 H       1  UNL11111    0.1125
     55 H         121.3201  151.9846  150.7984 H       1  UNL11111    0.1070
     56 H         120.9820  152.9309  152.2540 H       1  UNL11111    0.1070
     57 H         122.0710  153.5766  150.9677 H       1  UNL11111    0.1070
@<TRIPOS>BOND
     1     1    23   ar
     2     1    26   ar
     3     2     6    1
     4     2    15    1
     5     3    24    1
     6     3    27    1
     7     4    16   ar
     8     4    20   ar
     9     5    17    1
    10     5    21    1
    11     6     8    1
    12     6     9    1
    13     6    10    1
    14     7     8    1
    15     7    11    1
    16     7    14    1
    17     7    16    1
    18     9    12    1
    19    10    13    1
    20    11    15    1
    21    12    13    1
    22    14    17    1
    23    16    18   ar
    24    18    19   ar
    25    19    22   ar
    26    20    22   ar
    27    21    23    1
    28    23    24   ar
    29    24    25   ar
    30    25    26   ar
    31     5    28    1
    32     8    29    1
    33     8    30    1
    34     9    31    1
    35     9    32    1
    36    10    33    1
    37    10    34    1
    38    11    35    1
    39    11    36    1
    40    12    37    1
    41    12    38    1
    42    13    39    1
    43    13    40    1
    44    14    41    1
    45    14    42    1
    46    15    43    1
    47    15    44    1
    48    17    45    1
    49    17    46    1
    50    18    47    1
    51    19    48    1
    52    20    49    1
    53    21    50    1
    54    21    51    1
    55    22    52    1
    56    25    53    1
    57    26    54    1
    58    27    55    1
    59    27    56    1
    60    27    57    1
@<TRIPOS>MOLECULE
66553195
 57 60 0 0 0
SMALL
GASTEIGER

@<TRIPOS>ATOM
      1 S         115.1071  152.3966  149.6912 S.2     1  UNL11111   -0.1269
      2 O         123.7862  154.9025  145.6943 O.3     1  UNL11111   -0.4593
      3 O         116.8591  154.9227  152.0294 O.3     1  UNL11111   -0.5783
      4 N         121.1213  151.6147  144.9105 N.ar    1  UNL11111   -0.3349
      5 N         118.1983  153.4803  148.8000 N.3     1  UNL11111   -0.3404
      6 C         123.8186  154.1647  146.9202 C.3     1  UNL11111    0.0110
      7 C         121.3355  153.4800  146.5100 C.3     1  UNL11111    0.0128
      8 C         122.4038  154.0068  147.5097 C.3     1  UNL11111   -0.0152
      9 C         124.7161  154.9567  147.8873 C.3     1  UNL11111   -0.0341
     10 C         124.6321  152.8719  146.7756 C.3     1  UNL11111   -0.0341
     11 C         121.4792  154.3519  145.2257 C.3     1  UNL11111   -0.0192
     12 C         126.1442  154.6671  147.4274 C.3     1  UNL11111   -0.0539
     13 C         126.0805  153.3453  146.6671 C.3     1  UNL11111   -0.0539
     14 C         119.8899  153.7337  147.0530 C.3     1  UNL11111   -0.0315
     15 C         122.9072  154.3718  144.7067 C.3     1  UNL11111    0.0064
     16 C         121.4679  151.9858  146.1692 C.ar    1  UNL11111   -0.0010
     17 C         119.5430  153.0713  148.3927 C.3     1  UNL11111   -0.0284
     18 C         121.8629  151.0310  147.1090 C.ar    1  UNL11111   -0.0514
     19 C         121.9324  149.6876  146.7417 C.ar    1  UNL11111   -0.0708
     20 C         121.1967  150.3073  144.5770 C.ar    1  UNL11111   -0.0127
     21 C         117.8232  152.8723  150.0798 C.3     1  UNL11111    0.0161
     22 C         121.5962  149.3151  145.4495 C.ar    1  UNL11111   -0.0571
     23 C         116.4105  153.2316  150.4373 C.ar    1  UNL11111    0.0248
     24 C         115.9584  154.1813  151.3337 C.ar    1  UNL11111    0.0564
     25 C         114.5328  154.2218  151.3994 C.ar    1  UNL11111   -0.0135
     26 C         113.9477  153.3051  150.5540 C.ar    1  UNL11111   -0.0275
     27 C         116.3022  156.0070  152.7591 C.3     1  UNL11111    0.0304
     28 H         117.5217  153.1903  148.0939 H       1  UNL11111    0.1338
     29 H         122.0761  155.0076  147.8293 H       1  UNL11111    0.0529
     30 H         122.4458  153.4090  148.4261 H       1  UNL11111    0.0529
     31 H         124.5892  154.6020  148.9177 H       1  UNL11111    0.0462
     32 H         124.5140  156.0329  147.8663 H       1  UNL11111    0.0462
     33 H         124.3718  152.2691  145.9026 H       1  UNL11111    0.0462
     34 H         124.5275  152.2466  147.6705 H       1  UNL11111    0.0462
     35 H         121.2010  155.3867  145.4702 H       1  UNL11111    0.0502
     36 H         120.7952  154.0306  144.4313 H       1  UNL11111    0.0502
     37 H         126.8289  154.6129  148.2800 H       1  UNL11111    0.0342
     38 H         126.5066  155.4624  146.7661 H       1  UNL11111    0.0342
     39 H         126.3506  153.5075  145.6170 H       1  UNL11111    0.0342
     40 H         126.7756  152.6044  147.0743 H       1  UNL11111    0.0342
     41 H         119.1599  153.4059  146.2986 H       1  UNL11111    0.0446
     42 H         119.7431  154.8178  147.1636 H       1  UNL11111    0.0446
     43 H         123.2503  153.3873  144.3760 H       1  UNL11111    0.0891
     44 H         122.9661  155.0334  143.8360 H       1  UNL11111    0.0891
     45 H         119.5754  151.9818  148.2983 H       1  UNL11111    0.0605
     46 H         120.2621  153.3763  149.1596 H       1  UNL11111    0.0605
     47 H         122.1118  151.3018  148.1286 H       1  UNL11111    0.1002
     48 H         122.2429  148.9383  147.4645 H       1  UNL11111    0.0906
     49 H         120.9148  150.0748  143.5541 H       1  UNL11111    0.1371
     50 H         118.5028  153.2186  150.8676 H       1  UNL11111    0.0805
     51 H         117.9197  151.7799  150.0309 H       1  UNL11111    0.0805
     52 H         121.6384  148.2797  145.1324 H       1  UNL11111    0.0980
     53 H         113.9488  154.8787  152.0298 H       1  UNL11111    0.1153
     54 H         112.8926  153.1227  150.4038 H       1  UNL11111    0.1125
     55 H         117.1275  156.5673  153.2091 H       1  UNL11111    0.1070
     56 H         115.6620  155.6472  153.5714 H       1  UNL11111    0.1070
     57 H         115.7544  156.6908  152.1014 H       1  UNL11111    0.1070
@<TRIPOS>BOND
     1     1    23   ar
     2     1    26   ar
     3     2     6    1
     4     2    15    1
     5     3    24    1
     6     3    27    1
     7     4    16   ar
     8     4    20   ar
     9     5    17    1
    10     5    21    1
    11     6     8    1
    12     6     9    1
    13     6    10    1
    14     7     8    1
    15     7    11    1
    16     7    14    1
    17     7    16    1
    18     9    12    1
    19    10    13    1
    20    11    15    1
    21    12    13    1
    22    14    17    1
    23    16    18   ar
    24    18    19   ar
    25    19    22   ar
    26    20    22   ar
    27    21    23    1
    28    23    24   ar
    29    24    25   ar
    30    25    26   ar
    31     5    28    1
    32     8    29    1
    33     8    30    1
    34     9    31    1
    35     9    32    1
    36    10    33    1
    37    10    34    1
    38    11    35    1
    39    11    36    1
    40    12    37    1
    41    12    38    1
    42    13    39    1
    43    13    40    1
    44    14    41    1
    45    14    42    1
    46    15    43    1
    47    15    44    1
    48    17    45    1
    49    17    46    1
    50    18    47    1
    51    19    48    1
    52    20    49    1
    53    21    50    1
    54    21    51    1
    55    22    52    1
    56    25    53    1
    57    26    54    1
    58    27    55    1
    59    27    56    1
    60    27    57    1
@<TRIPOS>MOLECULE
66553195
 57 60 0 0 0
SMALL
GASTEIGER

@<TRIPOS>ATOM
      1 S         118.0778  157.0982  150.7805 S.2     1  UNL11111   -0.1269
      2 O         124.0099  154.8217  145.5664 O.3     1  UNL11111   -0.4593
      3 O         118.0176  153.3045  150.0730 O.3     1  UNL11111   -0.5783
      4 N         121.8541  151.3147  147.1419 N.ar    1  UNL11111   -0.3349
      5 N         120.1873  156.0152  148.3533 N.3     1  UNL11111   -0.3404
      6 C         123.9877  154.0570  146.7814 C.3     1  UNL11111    0.0110
      7 C         121.4444  153.6392  146.4061 C.3     1  UNL11111    0.0128
      8 C         122.5747  154.0421  147.3964 C.3     1  UNL11111   -0.0152
      9 C         124.9801  154.7352  147.7430 C.3     1  UNL11111   -0.0341
     10 C         124.6640  152.6931  146.5946 C.3     1  UNL11111   -0.0341
     11 C         121.6367  154.5289  145.1531 C.3     1  UNL11111   -0.0192
     12 C         126.3618  154.3168  147.2437 C.3     1  UNL11111   -0.0539
     13 C         126.1519  153.0181  146.4704 C.3     1  UNL11111   -0.0539
     14 C         120.0186  153.8371  147.0246 C.3     1  UNL11111   -0.0315
     15 C         123.0505  154.4226  144.5952 C.3     1  UNL11111    0.0064
     16 C         121.5070  152.1226  146.1062 C.ar    1  UNL11111   -0.0010
     17 C         119.4995  155.2561  147.3125 C.3     1  UNL11111   -0.0284
     18 C         121.1336  151.5803  144.8741 C.ar    1  UNL11111   -0.0514
     19 C         121.1623  150.1977  144.6929 C.ar    1  UNL11111   -0.0708
     20 C         121.8749  149.9787  146.9416 C.ar    1  UNL11111   -0.0127
     21 C         120.0526  155.4504  149.7032 C.3     1  UNL11111    0.0161
     22 C         121.5443  149.3779  145.7437 C.ar    1  UNL11111   -0.0571
     23 C         118.6611  155.5703  150.2572 C.ar    1  UNL11111    0.0248
     24 C         117.7154  154.5779  150.4338 C.ar    1  UNL11111    0.0564
     25 C         116.5054  155.0826  150.9973 C.ar    1  UNL11111   -0.0135
     26 C         116.5696  156.4383  151.2331 C.ar    1  UNL11111   -0.0275
     27 C         116.9586  152.3698  150.2194 C.3     1  UNL11111    0.0304
     28 H         119.8124  156.9635  148.3780 H       1  UNL11111    0.1338
     29 H         122.3857  155.0699  147.7231 H       1  UNL11111    0.0529
     30 H         122.5550  153.4302  148.3067 H       1  UNL11111    0.0529
     31 H         124.8402  154.3721  148.7688 H       1  UNL11111    0.0462
     32 H         124.8855  155.8264  147.7478 H       1  UNL11111    0.0462
     33 H         124.3317  152.1415  145.7122 H       1  UNL11111    0.0462
     34 H         124.5099  152.0609  147.4773 H       1  UNL11111    0.0462
     35 H         121.4881  155.5790  145.4345 H       1  UNL11111    0.0502
     36 H         120.8993  154.3142  144.3732 H       1  UNL11111    0.0502
     37 H         127.0596  154.1862  148.0770 H       1  UNL11111    0.0342
     38 H         126.7816  155.0827  146.5816 H       1  UNL11111    0.0342
     39 H         126.4239  153.1639  145.4184 H       1  UNL11111    0.0342
     40 H         126.7724  152.2049  146.8600 H       1  UNL11111    0.0342
     41 H         119.9314  153.2297  147.9347 H       1  UNL11111    0.0446
     42 H         119.2874  153.3977  146.3289 H       1  UNL11111    0.0446
     43 H         123.2823  153.4214  144.2213 H       1  UNL11111    0.0891
     44 H         123.1528  155.1043  143.7440 H       1  UNL11111    0.0891
     45 H         119.5396  155.8429  146.3885 H       1  UNL11111    0.0605
     46 H         118.4300  155.1914  147.5482 H       1  UNL11111    0.0605
     47 H         120.8073  152.2017  144.0490 H       1  UNL11111    0.1002
     48 H         120.8792  149.7663  143.7369 H       1  UNL11111    0.0906
     49 H         122.1735  149.3882  147.8027 H       1  UNL11111    0.1371
     50 H         120.7409  155.9979  150.3599 H       1  UNL11111    0.0805
     51 H         120.4027  154.4134  149.7356 H       1  UNL11111    0.0805
     52 H         121.5755  148.3003  145.6351 H       1  UNL11111    0.0980
     53 H         115.6242  154.4989  151.2273 H       1  UNL11111    0.1153
     54 H         115.8023  157.0742  151.6529 H       1  UNL11111    0.1125
     55 H         117.3204  151.3967  149.8733 H       1  UNL11111    0.1070
     56 H         116.0984  152.6450  149.5996 H       1  UNL11111    0.1070
     57 H         116.6676  152.2633  151.2698 H       1  UNL11111    0.1070
@<TRIPOS>BOND
     1     1    23   ar
     2     1    26   ar
     3     2     6    1
     4     2    15    1
     5     3    24    1
     6     3    27    1
     7     4    16   ar
     8     4    20   ar
     9     5    17    1
    10     5    21    1
    11     6     8    1
    12     6     9    1
    13     6    10    1
    14     7     8    1
    15     7    11    1
    16     7    14    1
    17     7    16    1
    18     9    12    1
    19    10    13    1
    20    11    15    1
    21    12    13    1
    22    14    17    1
    23    16    18   ar
    24    18    19   ar
    25    19    22   ar
    26    20    22   ar
    27    21    23    1
    28    23    24   ar
    29    24    25   ar
    30    25    26   ar
    31     5    28    1
    32     8    29    1
    33     8    30    1
    34     9    31    1
    35     9    32    1
    36    10    33    1
    37    10    34    1
    38    11    35    1
    39    11    36    1
    40    12    37    1
    41    12    38    1
    42    13    39    1
    43    13    40    1
    44    14    41    1
    45    14    42    1
    46    15    43    1
    47    15    44    1
    48    17    45    1
    49    17    46    1
    50    18    47    1
    51    19    48    1
    52    20    49    1
    53    21    50    1
    54    21    51    1
    55    22    52    1
    56    25    53    1
    57    26    54    1
    58    27    55    1
    59    27    56    1
    60    27    57    1
@<TRIPOS>MOLECULE
66553195
 57 60 0 0 0
SMALL
GASTEIGER

@<TRIPOS>ATOM
      1 S         115.9002  154.2993  151.0012 S.2     1  UNL11111   -0.1269
      2 O         123.8618  154.8658  145.6754 O.3     1  UNL11111   -0.4593
      3 O         116.5117  157.2938  148.6393 O.3     1  UNL11111   -0.5783
      4 N         121.9171  151.3103  147.0525 N.ar    1  UNL11111   -0.3349
      5 N         118.1014  153.6603  148.6505 N.3     1  UNL11111   -0.3404
      6 C         123.8158  154.1354  146.9081 C.3     1  UNL11111    0.0110
      7 C         121.2973  153.6142  146.4131 C.3     1  UNL11111    0.0128
      8 C         122.3761  154.0512  147.4515 C.3     1  UNL11111   -0.0152
      9 C         124.7149  154.8959  147.8999 C.3     1  UNL11111   -0.0341
     10 C         124.5797  152.8096  146.7995 C.3     1  UNL11111   -0.0341
     11 C         121.5463  154.4624  145.1358 C.3     1  UNL11111   -0.0192
     12 C         126.1434  154.5475  147.4853 C.3     1  UNL11111   -0.0539
     13 C         126.0499  153.2212  146.7360 C.3     1  UNL11111   -0.0539
     14 C         119.8742  153.9792  146.9494 C.3     1  UNL11111   -0.0315
     15 C         122.9887  154.3725  144.6677 C.3     1  UNL11111    0.0064
     16 C         121.3250  152.1047  146.1262 C.ar    1  UNL11111   -0.0010
     17 C         119.4443  153.2460  148.2300 C.3     1  UNL11111   -0.0284
     18 C         120.6826  151.5520  145.0155 C.ar    1  UNL11111   -0.0514
     19 C         120.6908  150.1702  144.8315 C.ar    1  UNL11111   -0.0708
     20 C         121.9162  149.9736  146.8499 C.ar    1  UNL11111   -0.0127
     21 C         118.1235  154.9065  149.4270 C.3     1  UNL11111    0.0161
     22 C         121.3250  149.3619  145.7624 C.ar    1  UNL11111   -0.0571
     23 C         116.7363  155.2839  149.8666 C.ar    1  UNL11111    0.0248
     24 C         115.9861  156.3872  149.5040 C.ar    1  UNL11111    0.0564
     25 C         114.7066  156.3987  150.1376 C.ar    1  UNL11111   -0.0135
     26 C         114.5302  155.3170  150.9719 C.ar    1  UNL11111   -0.0275
     27 C         115.6609  158.3874  148.3263 C.3     1  UNL11111    0.0304
     28 H         117.7078  152.9371  149.2531 H       1  UNL11111    0.1338
     29 H         122.1037  155.0627  147.7882 H       1  UNL11111    0.0529
     30 H         122.3535  153.4253  148.3518 H       1  UNL11111    0.0529
     31 H         124.5416  154.5520  148.9272 H       1  UNL11111    0.0462
     32 H         124.5570  155.9794  147.8681 H       1  UNL11111    0.0462
     33 H         124.3228  152.2113  145.9223 H       1  UNL11111    0.0462
     34 H         124.4209  152.1969  147.6952 H       1  UNL11111    0.0462
     35 H         121.3376  155.5158  145.3703 H       1  UNL11111    0.0502
     36 H         120.8717  154.1958  144.3163 H       1  UNL11111    0.0502
     37 H         126.8010  154.4768  148.3577 H       1  UNL11111    0.0342
     38 H         126.5545  155.3213  146.8268 H       1  UNL11111    0.0342
     39 H         126.3626  153.3599  145.6944 H       1  UNL11111    0.0342
     40 H         126.6989  152.4567  147.1746 H       1  UNL11111    0.0342
     41 H         119.1282  153.7777  146.1673 H       1  UNL11111    0.0446
     42 H         119.8374  155.0625  147.1228 H       1  UNL11111    0.0446
     43 H         123.2695  153.3575  144.3712 H       1  UNL11111    0.0891
     44 H         123.1232  155.0077  143.7859 H       1  UNL11111    0.0891
     45 H         119.3954  152.1706  148.0284 H       1  UNL11111    0.0605
     46 H         120.1649  153.3818  149.0433 H       1  UNL11111    0.0605
     47 H         120.1523  152.1696  144.2991 H       1  UNL11111    0.1002
     48 H         120.1939  149.7305  143.9713 H       1  UNL11111    0.0906
     49 H         122.4194  149.3903  147.6155 H       1  UNL11111    0.1371
     50 H         118.5491  155.7195  148.8295 H       1  UNL11111    0.0805
     51 H         118.7589  154.7929  150.3148 H       1  UNL11111    0.0805
     52 H         121.3481  148.2844  145.6494 H       1  UNL11111    0.0980
     53 H         113.9427  157.1526  150.0040 H       1  UNL11111    0.1153
     54 H         113.6628  155.0783  151.5714 H       1  UNL11111    0.1125
     55 H         116.1959  159.0393  147.6289 H       1  UNL11111    0.1070
     56 H         115.4281  158.9763  149.2200 H       1  UNL11111    0.1070
     57 H         114.7454  158.0479  147.8301 H       1  UNL11111    0.1070
@<TRIPOS>BOND
     1     1    23   ar
     2     1    26   ar
     3     2     6    1
     4     2    15    1
     5     3    24    1
     6     3    27    1
     7     4    16   ar
     8     4    20   ar
     9     5    17    1
    10     5    21    1
    11     6     8    1
    12     6     9    1
    13     6    10    1
    14     7     8    1
    15     7    11    1
    16     7    14    1
    17     7    16    1
    18     9    12    1
    19    10    13    1
    20    11    15    1
    21    12    13    1
    22    14    17    1
    23    16    18   ar
    24    18    19   ar
    25    19    22   ar
    26    20    22   ar
    27    21    23    1
    28    23    24   ar
    29    24    25   ar
    30    25    26   ar
    31     5    28    1
    32     8    29    1
    33     8    30    1
    34     9    31    1
    35     9    32    1
    36    10    33    1
    37    10    34    1
    38    11    35    1
    39    11    36    1
    40    12    37    1
    41    12    38    1
    42    13    39    1
    43    13    40    1
    44    14    41    1
    45    14    42    1
    46    15    43    1
    47    15    44    1
    48    17    45    1
    49    17    46    1
    50    18    47    1
    51    19    48    1
    52    20    49    1
    53    21    50    1
    54    21    51    1
    55    22    52    1
    56    25    53    1
    57    26    54    1
    58    27    55    1
    59    27    56    1
    60    27    57    1
@<TRIPOS>MOLECULE
66553195
 57 60 0 0 0
SMALL
GASTEIGER

@<TRIPOS>ATOM
      1 S         116.6553  152.6296  150.5598 S.2     1  UNL11111   -0.1269
      2 O         123.9609  154.8719  145.4958 O.3     1  UNL11111   -0.4593
      3 O         118.2256  149.1357  150.0734 O.3     1  UNL11111   -0.5783
      4 N         122.0419  151.4004  147.1672 N.ar    1  UNL11111   -0.3349
      5 N         119.5638  152.2566  148.6614 N.3     1  UNL11111   -0.3404
      6 C         123.9683  154.1958  146.7598 C.3     1  UNL11111    0.0110
      7 C         121.4262  153.6739  146.4175 C.3     1  UNL11111    0.0128
      8 C         122.5563  154.1588  147.3759 C.3     1  UNL11111   -0.0152
      9 C         124.9262  154.9829  147.6725 C.3     1  UNL11111   -0.0341
     10 C         124.7062  152.8536  146.6717 C.3     1  UNL11111   -0.0341
     11 C         121.6162  154.4652  145.0912 C.3     1  UNL11111   -0.0192
     12 C         126.3286  154.5865  147.2129 C.3     1  UNL11111   -0.0539
     13 C         126.1763  153.2378  146.5156 C.3     1  UNL11111   -0.0539
     14 C         120.0211  154.0640  146.9962 C.3     1  UNL11111   -0.0315
     15 C         123.0333  154.3470  144.5542 C.3     1  UNL11111    0.0064
     16 C         121.4631  152.1525  146.1935 C.ar    1  UNL11111   -0.0010
     17 C         119.7059  153.6924  148.4574 C.3     1  UNL11111   -0.0284
     18 C         120.8486  151.5469  145.0952 C.ar    1  UNL11111   -0.0514
     19 C         120.8752  150.1586  144.9683 C.ar    1  UNL11111   -0.0708
     20 C         122.0593  150.0554  147.0172 C.ar    1  UNL11111   -0.0127
     21 C         119.3044  151.9123  150.0614 C.3     1  UNL11111    0.0161
     22 C         121.4976  149.3949  145.9433 C.ar    1  UNL11111   -0.0571
     23 C         117.8851  151.4700  150.2599 C.ar    1  UNL11111    0.0248
     24 C         117.3801  150.1825  150.2642 C.ar    1  UNL11111    0.0564
     25 C         115.9714  150.1586  150.4947 C.ar    1  UNL11111   -0.0135
     26 C         115.4525  151.4230  150.6659 C.ar    1  UNL11111   -0.0275
     27 C         117.5952  147.8668  149.9804 C.3     1  UNL11111    0.0304
     28 H         120.4336  151.7933  148.3780 H       1  UNL11111    0.1338
     29 H         122.3069  155.1903  147.6669 H       1  UNL11111    0.0529
     30 H         122.5741  153.5820  148.3087 H       1  UNL11111    0.0529
     31 H         124.7938  154.6910  148.7218 H       1  UNL11111    0.0462
     32 H         124.7869  156.0667  147.5968 H       1  UNL11111    0.0462
     33 H         124.3969  152.2221  145.8357 H       1  UNL11111    0.0462
     34 H         124.5848  152.2833  147.6006 H       1  UNL11111    0.0462
     35 H         121.4291  155.5301  145.2898 H       1  UNL11111    0.0502
     36 H         120.8962  154.1733  144.3206 H       1  UNL11111    0.0502
     37 H         127.0184  154.5293  148.0612 H       1  UNL11111    0.0342
     38 H         126.7310  155.3273  146.5127 H       1  UNL11111    0.0342
     39 H         126.4334  153.3369  145.4545 H       1  UNL11111    0.0342
     40 H         126.8370  152.4777  146.9441 H       1  UNL11111    0.0342
     41 H         119.2280  153.6639  146.3491 H       1  UNL11111    0.0446
     42 H         119.9188  155.1571  146.9374 H       1  UNL11111    0.0446
     43 H         123.2945  153.3202  144.2820 H       1  UNL11111    0.0891
     44 H         123.1256  154.9476  143.6431 H       1  UNL11111    0.0891
     45 H         120.4754  154.1060  149.1184 H       1  UNL11111    0.0605
     46 H         118.7635  154.1860  148.7230 H       1  UNL11111    0.0605
     47 H         120.3246  152.1254  144.3432 H       1  UNL11111    0.1002
     48 H         120.3983  149.6793  144.1180 H       1  UNL11111    0.0906
     49 H         122.5471  149.5073  147.8181 H       1  UNL11111    0.1371
     50 H         119.5608  152.7288  150.7489 H       1  UNL11111    0.0805
     51 H         119.9724  151.0870  150.3395 H       1  UNL11111    0.0805
     52 H         121.5299  148.3139  145.8760 H       1  UNL11111    0.0980
     53 H         115.3541  149.2718  150.5399 H       1  UNL11111    0.1153
     54 H         114.4237  151.6965  150.8537 H       1  UNL11111    0.1125
     55 H         117.1046  147.5997  150.9224 H       1  UNL11111    0.1070
     56 H         118.3719  147.1204  149.7871 H       1  UNL11111    0.1070
     57 H         116.8870  147.8346  149.1455 H       1  UNL11111    0.1070
@<TRIPOS>BOND
     1     1    23   ar
     2     1    26   ar
     3     2     6    1
     4     2    15    1
     5     3    24    1
     6     3    27    1
     7     4    16   ar
     8     4    20   ar
     9     5    17    1
    10     5    21    1
    11     6     8    1
    12     6     9    1
    13     6    10    1
    14     7     8    1
    15     7    11    1
    16     7    14    1
    17     7    16    1
    18     9    12    1
    19    10    13    1
    20    11    15    1
    21    12    13    1
    22    14    17    1
    23    16    18   ar
    24    18    19   ar
    25    19    22   ar
    26    20    22   ar
    27    21    23    1
    28    23    24   ar
    29    24    25   ar
    30    25    26   ar
    31     5    28    1
    32     8    29    1
    33     8    30    1
    34     9    31    1
    35     9    32    1
    36    10    33    1
    37    10    34    1
    38    11    35    1
    39    11    36    1
    40    12    37    1
    41    12    38    1
    42    13    39    1
    43    13    40    1
    44    14    41    1
    45    14    42    1
    46    15    43    1
    47    15    44    1
    48    17    45    1
    49    17    46    1
    50    18    47    1
    51    19    48    1
    52    20    49    1
    53    21    50    1
    54    21    51    1
    55    22    52    1
    56    25    53    1
    57    26    54    1
    58    27    55    1
    59    27    56    1
    60    27    57    1
@<TRIPOS>MOLECULE
66553195
 57 60 0 0 0
SMALL
GASTEIGER

@<TRIPOS>ATOM
      1 S         115.8289  152.3867  146.8569 S.2     1  UNL11111   -0.1269
      2 O         124.1151  155.0371  145.7932 O.3     1  UNL11111   -0.4593
      3 O         117.3103  150.1020  149.5895 O.3     1  UNL11111   -0.5783
      4 N         122.4698  151.2938  146.4851 N.ar    1  UNL11111   -0.3349
      5 N         119.4486  151.8009  147.8629 N.3     1  UNL11111   -0.3404
      6 C         123.9950  154.2134  146.9606 C.3     1  UNL11111    0.0110
      7 C         121.5702  153.5811  146.1473 C.3     1  UNL11111    0.0128
      8 C         122.5162  153.9686  147.3258 C.3     1  UNL11111   -0.0152
      9 C         124.6984  154.9710  148.1032 C.3     1  UNL11111   -0.0341
     10 C         124.8934  152.9738  146.8593 C.3     1  UNL11111   -0.0341
     11 C         121.9155  154.5261  144.9606 C.3     1  UNL11111   -0.0192
     12 C         126.1921  154.7835  147.8452 C.3     1  UNL11111   -0.0539
     13 C         126.3148  153.5147  147.0075 C.3     1  UNL11111   -0.0539
     14 C         120.0807  153.8778  146.5534 C.3     1  UNL11111   -0.0315
     15 C         123.4046  154.5472  144.6633 C.3     1  UNL11111    0.0064
     16 C         121.7108  152.1108  145.7164 C.ar    1  UNL11111   -0.0010
     17 C         119.5481  153.2527  147.8561 C.3     1  UNL11111   -0.0284
     18 C         121.0524  151.6180  144.5844 C.ar    1  UNL11111   -0.0514
     19 C         121.1777  150.2728  144.2416 C.ar    1  UNL11111   -0.0708
     20 C         122.5681  149.9913  146.1393 C.ar    1  UNL11111   -0.0127
     21 C         118.3720  151.2508  147.0393 C.3     1  UNL11111    0.0161
     22 C         121.9499  149.4389  145.0347 C.ar    1  UNL11111   -0.0571
     23 C         117.0135  151.4331  147.6520 C.ar    1  UNL11111    0.0248
     24 C         116.5147  150.8804  148.8139 C.ar    1  UNL11111    0.0564
     25 C         115.1730  151.2788  149.0784 C.ar    1  UNL11111   -0.0135
     26 C         114.6765  152.0949  148.0852 C.ar    1  UNL11111   -0.0275
     27 C         116.6381  148.9676  150.1229 C.3     1  UNL11111    0.0304
     28 H         119.3124  151.4663  148.8179 H       1  UNL11111    0.1338
     29 H         122.1366  154.9179  147.7331 H       1  UNL11111    0.0529
     30 H         122.4496  153.2456  148.1485 H       1  UNL11111    0.0529
     31 H         124.4416  154.5345  149.0766 H       1  UNL11111    0.0462
     32 H         124.4416  156.0356  148.1247 H       1  UNL11111    0.0462
     33 H         124.8056  152.4293  145.9164 H       1  UNL11111    0.0462
     34 H         124.6897  152.2793  147.6834 H       1  UNL11111    0.0462
     35 H         121.6183  155.5499  145.2275 H       1  UNL11111    0.0502
     36 H         121.3603  154.2734  144.0513 H       1  UNL11111    0.0502
     37 H         126.7481  154.7062  148.7851 H       1  UNL11111    0.0342
     38 H         126.5993  155.6379  147.2925 H       1  UNL11111    0.0342
     39 H         126.7351  153.7572  146.0245 H       1  UNL11111    0.0342
     40 H         126.9760  152.7779  147.4744 H       1  UNL11111    0.0342
     41 H         119.4059  153.6318  145.7242 H       1  UNL11111    0.0446
     42 H         119.9769  154.9651  146.6822 H       1  UNL11111    0.0446
     43 H         123.7843  153.5696  144.3523 H       1  UNL11111    0.0891
     44 H         123.5982  155.2392  143.8370 H       1  UNL11111    0.0891
     45 H         120.2036  153.5487  148.6825 H       1  UNL11111    0.0605
     46 H         118.5767  153.7026  148.0940 H       1  UNL11111    0.0605
     47 H         120.4236  152.2585  143.9757 H       1  UNL11111    0.1002
     48 H         120.6656  149.8807  143.3680 H       1  UNL11111    0.0906
     49 H         123.1801  149.3856  146.8008 H       1  UNL11111    0.1371
     50 H         118.5518  150.1727  146.9397 H       1  UNL11111    0.0805
     51 H         118.4100  151.6434  146.0182 H       1  UNL11111    0.0805
     52 H         122.0628  148.3865  144.8037 H       1  UNL11111    0.0980
     53 H         114.5961  150.9997  149.9496 H       1  UNL11111    0.1153
     54 H         113.6933  152.5404  148.0242 H       1  UNL11111    0.1125
     55 H         117.3854  148.3383  150.6159 H       1  UNL11111    0.1070
     56 H         116.1728  148.3761  149.3263 H       1  UNL11111    0.1070
     57 H         115.8973  149.2573  150.8744 H       1  UNL11111    0.1070
@<TRIPOS>BOND
     1     1    23   ar
     2     1    26   ar
     3     2     6    1
     4     2    15    1
     5     3    24    1
     6     3    27    1
     7     4    16   ar
     8     4    20   ar
     9     5    17    1
    10     5    21    1
    11     6     8    1
    12     6     9    1
    13     6    10    1
    14     7     8    1
    15     7    11    1
    16     7    14    1
    17     7    16    1
    18     9    12    1
    19    10    13    1
    20    11    15    1
    21    12    13    1
    22    14    17    1
    23    16    18   ar
    24    18    19   ar
    25    19    22   ar
    26    20    22   ar
    27    21    23    1
    28    23    24   ar
    29    24    25   ar
    30    25    26   ar
    31     5    28    1
    32     8    29    1
    33     8    30    1
    34     9    31    1
    35     9    32    1
    36    10    33    1
    37    10    34    1
    38    11    35    1
    39    11    36    1
    40    12    37    1
    41    12    38    1
    42    13    39    1
    43    13    40    1
    44    14    41    1
    45    14    42    1
    46    15    43    1
    47    15    44    1
    48    17    45    1
    49    17    46    1
    50    18    47    1
    51    19    48    1
    52    20    49    1
    53    21    50    1
    54    21    51    1
    55    22    52    1
    56    25    53    1
    57    26    54    1
    58    27    55    1
    59    27    56    1
    60    27    57    1
@<TRIPOS>MOLECULE
66553195
 57 60 0 0 0
SMALL
GASTEIGER

@<TRIPOS>ATOM
      1 S         119.6635  159.2102  148.3919 S.2     1  UNL11111   -0.1269
      2 O         124.0951  154.7576  145.8322 O.3     1  UNL11111   -0.4593
      3 O         118.4146  156.3913  150.7153 O.3     1  UNL11111   -0.5783
      4 N         121.5014  151.8168  144.7487 N.ar    1  UNL11111   -0.3349
      5 N         118.3140  155.6843  147.6549 N.3     1  UNL11111   -0.3404
      6 C         123.9019  153.9800  147.0186 C.3     1  UNL11111    0.0110
      7 C         121.4000  153.7037  146.3612 C.3     1  UNL11111    0.0128
      8 C         122.4338  154.0414  147.4729 C.3     1  UNL11111   -0.0152
      9 C         124.8179  154.5849  148.0969 C.3     1  UNL11111   -0.0341
     10 C         124.5038  152.5748  146.8897 C.3     1  UNL11111   -0.0341
     11 C         121.7843  154.5438  145.1141 C.3     1  UNL11111   -0.0192
     12 C         126.2173  154.0828  147.7489 C.3     1  UNL11111   -0.0539
     13 C         126.0141  152.7996  146.9481 C.3     1  UNL11111   -0.0539
     14 C         119.9469  154.0503  146.8352 C.3     1  UNL11111   -0.0315
     15 C         123.2542  154.3904  144.7404 C.3     1  UNL11111    0.0064
     16 C         121.3878  152.1912  146.0473 C.ar    1  UNL11111   -0.0010
     17 C         119.6150  155.5411  146.9954 C.3     1  UNL11111   -0.0284
     18 C         121.2182  151.2389  147.0574 C.ar    1  UNL11111   -0.0514
     19 C         121.1932  149.8847  146.7297 C.ar    1  UNL11111   -0.0708
     20 C         121.4737  150.4974  144.4563 C.ar    1  UNL11111   -0.0127
     21 C         117.9381  157.0916  147.8479 C.3     1  UNL11111    0.0161
     22 C         121.3267  149.5026  145.4034 C.ar    1  UNL11111   -0.0571
     23 C         118.8013  157.8003  148.8558 C.ar    1  UNL11111    0.0248
     24 C         119.0228  157.4843  150.1839 C.ar    1  UNL11111    0.0564
     25 C         119.9183  158.4011  150.8123 C.ar    1  UNL11111   -0.0135
     26 C         120.3424  159.3862  149.9479 C.ar    1  UNL11111   -0.0275
     27 C         118.6867  156.1657  152.0917 C.3     1  UNL11111    0.0304
     28 H         118.3458  155.2502  148.5792 H       1  UNL11111    0.1338
     29 H         122.2550  155.0737  147.7987 H       1  UNL11111    0.0529
     30 H         122.2863  153.4241  148.3667 H       1  UNL11111    0.0529
     31 H         124.5406  154.2218  149.0944 H       1  UNL11111    0.0462
     32 H         124.7915  155.6799  148.1093 H       1  UNL11111    0.0462
     33 H         124.2435  152.0520  145.9669 H       1  UNL11111    0.0462
     34 H         124.2008  151.9462  147.7360 H       1  UNL11111    0.0462
     35 H         121.6342  155.6076  145.3344 H       1  UNL11111    0.0502
     36 H         121.1465  154.3075  144.2543 H       1  UNL11111    0.0502
     37 H         126.8112  153.9100  148.6521 H       1  UNL11111    0.0342
     38 H         126.7520  154.8220  147.1413 H       1  UNL11111    0.0342
     39 H         126.4206  152.9243  145.9377 H       1  UNL11111    0.0342
     40 H         126.5265  151.9472  147.4052 H       1  UNL11111    0.0342
     41 H         119.7623  153.5470  147.7949 H       1  UNL11111    0.0446
     42 H         119.2235  153.6210  146.1264 H       1  UNL11111    0.0446
     43 H         123.5074  153.3874  144.3884 H       1  UNL11111    0.0891
     44 H         123.4859  155.0730  143.9157 H       1  UNL11111    0.0891
     45 H         120.3919  156.0384  147.5804 H       1  UNL11111    0.0605
     46 H         119.5679  156.0151  146.0091 H       1  UNL11111    0.0605
     47 H         121.0956  151.5323  148.0945 H       1  UNL11111    0.1002
     48 H         121.0635  149.1361  147.5060 H       1  UNL11111    0.0906
     49 H         121.5755  150.2564  143.4022 H       1  UNL11111    0.1371
     50 H         116.9031  157.1160  148.2108 H       1  UNL11111    0.0805
     51 H         117.9277  157.6082  146.8804 H       1  UNL11111    0.0805
     52 H         121.3095  148.4585  145.1140 H       1  UNL11111    0.0980
     53 H         120.2489  158.3579  151.8414 H       1  UNL11111    0.1153
     54 H         121.0192  160.2035  150.1560 H       1  UNL11111    0.1125
     55 H         118.1317  155.2748  152.4011 H       1  UNL11111    0.1070
     56 H         118.3424  157.0038  152.7069 H       1  UNL11111    0.1070
     57 H         119.7515  155.9686  152.2564 H       1  UNL11111    0.1070
@<TRIPOS>BOND
     1     1    23   ar
     2     1    26   ar
     3     2     6    1
     4     2    15    1
     5     3    24    1
     6     3    27    1
     7     4    16   ar
     8     4    20   ar
     9     5    17    1
    10     5    21    1
    11     6     8    1
    12     6     9    1
    13     6    10    1
    14     7     8    1
    15     7    11    1
    16     7    14    1
    17     7    16    1
    18     9    12    1
    19    10    13    1
    20    11    15    1
    21    12    13    1
    22    14    17    1
    23    16    18   ar
    24    18    19   ar
    25    19    22   ar
    26    20    22   ar
    27    21    23    1
    28    23    24   ar
    29    24    25   ar
    30    25    26   ar
    31     5    28    1
    32     8    29    1
    33     8    30    1
    34     9    31    1
    35     9    32    1
    36    10    33    1
    37    10    34    1
    38    11    35    1
    39    11    36    1
    40    12    37    1
    41    12    38    1
    42    13    39    1
    43    13    40    1
    44    14    41    1
    45    14    42    1
    46    15    43    1
    47    15    44    1
    48    17    45    1
    49    17    46    1
    50    18    47    1
    51    19    48    1
    52    20    49    1
    53    21    50    1
    54    21    51    1
    55    22    52    1
    56    25    53    1
    57    26    54    1
    58    27    55    1
    59    27    56    1
    60    27    57    1
@<TRIPOS>MOLECULE
66553195
 57 60 0 0 0
SMALL
GASTEIGER

@<TRIPOS>ATOM
      1 S         117.4957  155.9353  142.1002 S.2     1  UNL11111   -0.1269
      2 O         124.0768  154.9517  145.9096 O.3     1  UNL11111   -0.4593
      3 O         120.1290  157.9146  144.1140 O.3     1  UNL11111   -0.5783
      4 N         121.5428  151.4048  147.1254 N.ar    1  UNL11111   -0.3349
      5 N         118.7280  154.3063  144.6958 N.3     1  UNL11111   -0.3404
      6 C         123.8945  154.1191  147.0615 C.3     1  UNL11111    0.0110
      7 C         121.4166  153.7305  146.3366 C.3     1  UNL11111    0.0128
      8 C         122.4172  154.0996  147.4813 C.3     1  UNL11111   -0.0152
      9 C         124.7645  154.7200  148.1787 C.3     1  UNL11111   -0.0341
     10 C         124.5628  152.7494  146.8864 C.3     1  UNL11111   -0.0341
     11 C         121.7841  154.6538  145.1464 C.3     1  UNL11111   -0.0192
     12 C         126.1912  154.2956  147.8349 C.3     1  UNL11111   -0.0539
     13 C         126.0598  153.0418  146.9745 C.3     1  UNL11111   -0.0539
     14 C         119.9788  154.0504  146.8762 C.3     1  UNL11111   -0.0315
     15 C         123.2653  154.6005  144.7963 C.3     1  UNL11111    0.0064
     16 C         121.4775  152.2244  146.0422 C.ar    1  UNL11111   -0.0010
     17 C         118.7740  153.6564  146.0016 C.3     1  UNL11111   -0.0284
     18 C         121.3986  151.6973  144.7523 C.ar    1  UNL11111   -0.0514
     19 C         121.4254  150.3149  144.5706 C.ar    1  UNL11111   -0.0708
     20 C         121.5692  150.0692  146.9227 C.ar    1  UNL11111   -0.0127
     21 C         118.2603  155.6948  144.7749 C.3     1  UNL11111    0.0161
     22 C         121.5170  149.4814  145.6748 C.ar    1  UNL11111   -0.0571
     23 C         118.4497  156.3866  143.4553 C.ar    1  UNL11111    0.0248
     24 C         119.3193  157.4151  143.1441 C.ar    1  UNL11111    0.0564
     25 C         119.2174  157.8103  141.7766 C.ar    1  UNL11111   -0.0135
     26 C         118.2670  157.0809  141.0961 C.ar    1  UNL11111   -0.0275
     27 C         120.9986  158.9565  143.6952 C.3     1  UNL11111    0.0304
     28 H         118.0843  153.8018  144.0864 H       1  UNL11111    0.1338
     29 H         122.1654  155.1167  147.8181 H       1  UNL11111    0.0529
     30 H         122.2803  153.4572  148.3606 H       1  UNL11111    0.0529
     31 H         124.4885  154.3045  149.1559 H       1  UNL11111    0.0462
     32 H         124.6885  155.8112  148.2340 H       1  UNL11111    0.0462
     33 H         124.3375  152.2522  145.9404 H       1  UNL11111    0.0462
     34 H         124.2809  152.0750  147.7042 H       1  UNL11111    0.0462
     35 H         121.5475  155.6891  145.4275 H       1  UNL11111    0.0502
     36 H         121.2079  154.4389  144.2440 H       1  UNL11111    0.0502
     37 H         126.7769  154.1084  148.7406 H       1  UNL11111    0.0342
     38 H         126.7029  155.0838  147.2707 H       1  UNL11111    0.0342
     39 H         126.4707  153.2316  145.9760 H       1  UNL11111    0.0342
     40 H         126.6077  152.1948  147.3993 H       1  UNL11111    0.0342
     41 H         119.9145  155.1191  147.1177 H       1  UNL11111    0.0446
     42 H         119.8448  153.5337  147.8379 H       1  UNL11111    0.0446
     43 H         123.5640  153.6248  144.4027 H       1  UNL11111    0.0891
     44 H         123.4725  155.3295  144.0055 H       1  UNL11111    0.0891
     45 H         118.7849  152.5724  145.8437 H       1  UNL11111    0.0605
     46 H         117.8466  153.8568  146.5534 H       1  UNL11111    0.0605
     47 H         121.2978  152.3326  143.8799 H       1  UNL11111    0.1002
     48 H         121.3666  149.8958  143.5701 H       1  UNL11111    0.0906
     49 H         121.6339  149.4669  147.8241 H       1  UNL11111    0.1371
     50 H         118.8073  156.2460  145.5469 H       1  UNL11111    0.0805
     51 H         117.2004  155.7211  145.0575 H       1  UNL11111    0.0805
     52 H         121.5389  148.4035  145.5663 H       1  UNL11111    0.0980
     53 H         119.7989  158.5869  141.2987 H       1  UNL11111    0.1153
     54 H         117.9845  157.1701  140.0563 H       1  UNL11111    0.1125
     55 H         121.5903  159.2672  144.5618 H       1  UNL11111    0.1070
     56 H         120.4334  159.8283  143.3486 H       1  UNL11111    0.1070
     57 H         121.6934  158.6066  142.9244 H       1  UNL11111    0.1070
@<TRIPOS>BOND
     1     1    23   ar
     2     1    26   ar
     3     2     6    1
     4     2    15    1
     5     3    24    1
     6     3    27    1
     7     4    16   ar
     8     4    20   ar
     9     5    17    1
    10     5    21    1
    11     6     8    1
    12     6     9    1
    13     6    10    1
    14     7     8    1
    15     7    11    1
    16     7    14    1
    17     7    16    1
    18     9    12    1
    19    10    13    1
    20    11    15    1
    21    12    13    1
    22    14    17    1
    23    16    18   ar
    24    18    19   ar
    25    19    22   ar
    26    20    22   ar
    27    21    23    1
    28    23    24   ar
    29    24    25   ar
    30    25    26   ar
    31     5    28    1
    32     8    29    1
    33     8    30    1
    34     9    31    1
    35     9    32    1
    36    10    33    1
    37    10    34    1
    38    11    35    1
    39    11    36    1
    40    12    37    1
    41    12    38    1
    42    13    39    1
    43    13    40    1
    44    14    41    1
    45    14    42    1
    46    15    43    1
    47    15    44    1
    48    17    45    1
    49    17    46    1
    50    18    47    1
    51    19    48    1
    52    20    49    1
    53    21    50    1
    54    21    51    1
    55    22    52    1
    56    25    53    1
    57    26    54    1
    58    27    55    1
    59    27    56    1
    60    27    57    1
@<TRIPOS>MOLECULE
66553195
 57 60 0 0 0
SMALL
GASTEIGER

@<TRIPOS>ATOM
      1 S         120.3082  148.7621  150.4850 S.2     1  UNL11111   -0.1269
      2 O         123.9179  155.0369  145.7735 O.3     1  UNL11111   -0.4593
      3 O         117.7774  148.9832  147.5369 O.3     1  UNL11111   -0.5783
      4 N         122.1443  151.2684  146.8613 N.ar    1  UNL11111   -0.3349
      5 N         119.4942  151.7176  148.2368 N.3     1  UNL11111   -0.3404
      6 C         123.9319  154.1834  146.9254 C.3     1  UNL11111    0.0110
      7 C         121.4315  153.5924  146.4279 C.3     1  UNL11111    0.0128
      8 C         122.5096  153.9846  147.4839 C.3     1  UNL11111   -0.0152
      9 C         124.8231  154.8761  147.9722 C.3     1  UNL11111   -0.0341
     10 C         124.7443  152.9078  146.6672 C.3     1  UNL11111   -0.0341
     11 C         121.6110  154.5768  145.2372 C.3     1  UNL11111   -0.0192
     12 C         126.2549  154.6272  147.5002 C.3     1  UNL11111   -0.0539
     13 C         126.1947  153.3848  146.6160 C.3     1  UNL11111   -0.0539
     14 C         119.9958  153.8304  147.0164 C.3     1  UNL11111   -0.0315
     15 C         123.0453  154.6084  144.7357 C.3     1  UNL11111    0.0064
     16 C         121.5521  152.1245  145.9867 C.ar    1  UNL11111   -0.0010
     17 C         119.6370  153.1618  148.3575 C.3     1  UNL11111   -0.0284
     18 C         120.9753  151.6515  144.8063 C.ar    1  UNL11111   -0.0514
     19 C         121.0469  150.2928  144.5006 C.ar    1  UNL11111   -0.0708
     20 C         122.2055  149.9549  146.5387 C.ar    1  UNL11111   -0.0127
     21 C         119.1497  151.0841  149.5066 C.3     1  UNL11111    0.0161
     22 C         121.6770  149.4252  145.3795 C.ar    1  UNL11111   -0.0571
     23 C         119.2500  149.5858  149.3970 C.ar    1  UNL11111    0.0248
     24 C         118.6398  148.6833  148.5391 C.ar    1  UNL11111    0.0564
     25 C         119.0956  147.3485  148.7318 C.ar    1  UNL11111   -0.0135
     26 C         119.9908  147.2469  149.7696 C.ar    1  UNL11111   -0.0275
     27 C         116.6411  149.7244  147.9627 C.3     1  UNL11111    0.0304
     28 H         120.3892  151.3221  147.9263 H       1  UNL11111    0.1338
     29 H         122.1980  154.9473  147.9162 H       1  UNL11111    0.0529
     30 H         122.5350  153.2774  148.3220 H       1  UNL11111    0.0529
     31 H         124.6850  154.4251  148.9627 H       1  UNL11111    0.0462
     32 H         124.6242  155.9503  148.0522 H       1  UNL11111    0.0462
     33 H         124.4903  152.3903  145.7393 H       1  UNL11111    0.0462
     34 H         124.6316  152.2022  147.4992 H       1  UNL11111    0.0462
     35 H         121.3604  155.5904  145.5810 H       1  UNL11111    0.0502
     36 H         120.9283  154.3634  144.4090 H       1  UNL11111    0.0502
     37 H         126.9310  154.4890  148.3501 H       1  UNL11111    0.0342
     38 H         126.6258  155.4810  146.9216 H       1  UNL11111    0.0342
     39 H         126.4739  153.6459  145.5885 H       1  UNL11111    0.0342
     40 H         126.8847  152.6061  146.9560 H       1  UNL11111    0.0342
     41 H         119.2394  153.5514  146.2693 H       1  UNL11111    0.0446
     42 H         119.8648  154.9109  147.1716 H       1  UNL11111    0.0446
     43 H         123.3682  153.6462  144.3278 H       1  UNL11111    0.0891
     44 H         123.1282  155.3387  143.9238 H       1  UNL11111    0.0891
     45 H         120.3808  153.4215  149.1183 H       1  UNL11111    0.0605
     46 H         118.6801  153.5823  148.6912 H       1  UNL11111    0.0605
     47 H         120.4386  152.3066  144.1302 H       1  UNL11111    0.1002
     48 H         120.5921  149.9134  143.5900 H       1  UNL11111    0.0906
     49 H         122.6930  149.3202  147.2730 H       1  UNL11111    0.1371
     50 H         118.1306  151.3565  149.8038 H       1  UNL11111    0.0805
     51 H         119.8186  151.4493  150.2963 H       1  UNL11111    0.0805
     52 H         121.7355  148.3625  145.1766 H       1  UNL11111    0.0980
     53 H         118.7691  146.5043  148.1384 H       1  UNL11111    0.1153
     54 H         120.4794  146.3555  150.1379 H       1  UNL11111    0.1125
     55 H         115.8155  149.4864  147.2847 H       1  UNL11111    0.1070
     56 H         116.8312  150.7977  147.8818 H       1  UNL11111    0.1070
     57 H         116.3235  149.4633  148.9788 H       1  UNL11111    0.1070
@<TRIPOS>BOND
     1     1    23   ar
     2     1    26   ar
     3     2     6    1
     4     2    15    1
     5     3    24    1
     6     3    27    1
     7     4    16   ar
     8     4    20   ar
     9     5    17    1
    10     5    21    1
    11     6     8    1
    12     6     9    1
    13     6    10    1
    14     7     8    1
    15     7    11    1
    16     7    14    1
    17     7    16    1
    18     9    12    1
    19    10    13    1
    20    11    15    1
    21    12    13    1
    22    14    17    1
    23    16    18   ar
    24    18    19   ar
    25    19    22   ar
    26    20    22   ar
    27    21    23    1
    28    23    24   ar
    29    24    25   ar
    30    25    26   ar
    31     5    28    1
    32     8    29    1
    33     8    30    1
    34     9    31    1
    35     9    32    1
    36    10    33    1
    37    10    34    1
    38    11    35    1
    39    11    36    1
    40    12    37    1
    41    12    38    1
    42    13    39    1
    43    13    40    1
    44    14    41    1
    45    14    42    1
    46    15    43    1
    47    15    44    1
    48    17    45    1
    49    17    46    1
    50    18    47    1
    51    19    48    1
    52    20    49    1
    53    21    50    1
    54    21    51    1
    55    22    52    1
    56    25    53    1
    57    26    54    1
    58    27    55    1
    59    27    56    1
    60    27    57    1
@<TRIPOS>MOLECULE
66553195
 57 60 0 0 0
SMALL
GASTEIGER

@<TRIPOS>ATOM
      1 S         118.8957  150.4381  150.8397 S.2     1  UNL11111   -0.1269
      2 O         124.0065  154.9630  145.6255 O.3     1  UNL11111   -0.4593
      3 O         115.8124  151.6650  148.8682 O.3     1  UNL11111   -0.5783
      4 N         122.1567  151.3348  147.0773 N.ar    1  UNL11111   -0.3349
      5 N         118.4610  153.6162  148.8594 N.3     1  UNL11111   -0.3404
      6 C         124.0362  154.1997  146.8389 C.3     1  UNL11111    0.0110
      7 C         121.5116  153.6353  146.4635 C.3     1  UNL11111    0.0128
      8 C         122.6291  154.0823  147.4546 C.3     1  UNL11111   -0.0152
      9 C         124.9793  154.9436  147.8015 C.3     1  UNL11111   -0.0341
     10 C         124.8050  152.8852  146.6532 C.3     1  UNL11111   -0.0341
     11 C         121.6699  154.5251  145.2002 C.3     1  UNL11111   -0.0192
     12 C         126.3879  154.6164  147.3081 C.3     1  UNL11111   -0.0539
     13 C         126.2649  153.3149  146.5205 C.3     1  UNL11111   -0.0539
     14 C         120.1030  153.9332  147.0749 C.3     1  UNL11111   -0.0315
     15 C         123.0868  154.4855  144.6520 C.3     1  UNL11111    0.0064
     16 C         121.5747  152.1324  146.1469 C.ar    1  UNL11111   -0.0010
     17 C         119.7882  153.2046  148.3907 C.3     1  UNL11111   -0.0284
     18 C         120.9759  151.5841  145.0105 C.ar    1  UNL11111   -0.0514
     19 C         121.0147  150.2049  144.8091 C.ar    1  UNL11111   -0.0708
     20 C         122.1802  150.0009  146.8616 C.ar    1  UNL11111   -0.0127
     21 C         118.1245  153.0310  150.1634 C.3     1  UNL11111    0.0161
     22 C         121.6316  149.3943  145.7496 C.ar    1  UNL11111   -0.0571
     23 C         117.8316  151.5587  150.0925 C.ar    1  UNL11111    0.0248
     24 C         116.7574  150.9211  149.5002 C.ar    1  UNL11111    0.0564
     25 C         116.8261  149.5031  149.6472 C.ar    1  UNL11111   -0.0135
     26 C         117.9407  149.1091  150.3542 C.ar    1  UNL11111   -0.0275
     27 C         114.6918  150.9306  148.3950 C.3     1  UNL11111    0.0304
     28 H         117.7509  153.3138  148.1913 H       1  UNL11111    0.1338
     29 H         122.3530  155.0832  147.8187 H       1  UNL11111    0.0529
     30 H         122.6664  153.4433  148.3451 H       1  UNL11111    0.0529
     31 H         124.8607  154.5742  148.8278 H       1  UNL11111    0.0462
     32 H         124.8126  156.0261  147.8040 H       1  UNL11111    0.0462
     33 H         124.5058  152.3072  145.7758 H       1  UNL11111    0.0462
     34 H         124.7013  152.2475  147.5394 H       1  UNL11111    0.0462
     35 H         121.4505  155.5659  145.4776 H       1  UNL11111    0.0502
     36 H         120.9556  154.2675  144.4122 H       1  UNL11111    0.0502
     37 H         127.0856  154.5196  148.1463 H       1  UNL11111    0.0342
     38 H         126.7655  155.4136  146.6577 H       1  UNL11111    0.0342
     39 H         126.5157  153.4923  145.4681 H       1  UNL11111    0.0342
     40 H         126.9454  152.5436  146.8948 H       1  UNL11111    0.0342
     41 H         119.3273  153.6823  146.3371 H       1  UNL11111    0.0446
     42 H         120.0138  155.0150  147.2491 H       1  UNL11111    0.0446
     43 H         123.3728  153.4885  144.3043 H       1  UNL11111    0.0891
     44 H         123.1584  155.1533  143.7870 H       1  UNL11111    0.0891
     45 H         119.8106  152.1226  148.2334 H       1  UNL11111    0.0605
     46 H         120.5358  153.4632  149.1472 H       1  UNL11111    0.0605
     47 H         120.4595  152.2000  144.2834 H       1  UNL11111    0.1002
     48 H         120.5547  149.7685  143.9269 H       1  UNL11111    0.0906
     49 H         122.6669  149.4167  147.6371 H       1  UNL11111    0.1371
     50 H         117.2251  153.5389  150.5337 H       1  UNL11111    0.0805
     51 H         118.9103  153.2581  150.8943 H       1  UNL11111    0.0805
     52 H         121.6752  148.3189  145.6247 H       1  UNL11111    0.0980
     53 H         116.1075  148.7922  149.2622 H       1  UNL11111    0.1153
     54 H         118.2401  148.1027  150.6118 H       1  UNL11111    0.1125
     55 H         113.9889  151.6414  147.9500 H       1  UNL11111    0.1070
     56 H         114.1756  150.4207  149.2157 H       1  UNL11111    0.1070
     57 H         114.9864  150.2204  147.6151 H       1  UNL11111    0.1070
@<TRIPOS>BOND
     1     1    23   ar
     2     1    26   ar
     3     2     6    1
     4     2    15    1
     5     3    24    1
     6     3    27    1
     7     4    16   ar
     8     4    20   ar
     9     5    17    1
    10     5    21    1
    11     6     8    1
    12     6     9    1
    13     6    10    1
    14     7     8    1
    15     7    11    1
    16     7    14    1
    17     7    16    1
    18     9    12    1
    19    10    13    1
    20    11    15    1
    21    12    13    1
    22    14    17    1
    23    16    18   ar
    24    18    19   ar
    25    19    22   ar
    26    20    22   ar
    27    21    23    1
    28    23    24   ar
    29    24    25   ar
    30    25    26   ar
    31     5    28    1
    32     8    29    1
    33     8    30    1
    34     9    31    1
    35     9    32    1
    36    10    33    1
    37    10    34    1
    38    11    35    1
    39    11    36    1
    40    12    37    1
    41    12    38    1
    42    13    39    1
    43    13    40    1
    44    14    41    1
    45    14    42    1
    46    15    43    1
    47    15    44    1
    48    17    45    1
    49    17    46    1
    50    18    47    1
    51    19    48    1
    52    20    49    1
    53    21    50    1
    54    21    51    1
    55    22    52    1
    56    25    53    1
    57    26    54    1
    58    27    55    1
    59    27    56    1
    60    27    57    1
@<TRIPOS>MOLECULE
66553195
 57 60 0 0 0
SMALL
GASTEIGER

@<TRIPOS>ATOM
      1 S         119.1724  150.5119  150.9522 S.2     1  UNL11111   -0.1269
      2 O         123.9734  154.9681  145.6115 O.3     1  UNL11111   -0.4593
      3 O         115.7449  151.6903  149.6265 O.3     1  UNL11111   -0.5783
      4 N         122.1653  151.2989  147.0563 N.ar    1  UNL11111   -0.3349
      5 N         118.5305  153.5696  148.9598 N.3     1  UNL11111   -0.3404
      6 C         124.0308  154.1862  146.8118 C.3     1  UNL11111    0.0110
      7 C         121.5056  153.6021  146.4720 C.3     1  UNL11111    0.0128
      8 C         122.6362  154.0469  147.4493 C.3     1  UNL11111   -0.0152
      9 C         124.9831  154.9226  147.7711 C.3     1  UNL11111   -0.0341
     10 C         124.8063  152.8808  146.5926 C.3     1  UNL11111   -0.0341
     11 C         121.6327  154.5137  145.2204 C.3     1  UNL11111   -0.0192
     12 C         126.3868  154.6116  147.2540 C.3     1  UNL11111   -0.0539
     13 C         126.2604  153.3243  146.4441 C.3     1  UNL11111   -0.0539
     14 C         120.1047  153.8751  147.1129 C.3     1  UNL11111   -0.0315
     15 C         123.0404  154.4983  144.6467 C.3     1  UNL11111    0.0064
     16 C         121.5811  152.1047  146.1341 C.ar    1  UNL11111   -0.0010
     17 C         119.8347  153.1482  148.4396 C.3     1  UNL11111   -0.0284
     18 C         120.9982  151.5677  144.9842 C.ar    1  UNL11111   -0.0514
     19 C         121.0566  150.1927  144.7600 C.ar    1  UNL11111   -0.0708
     20 C         122.2072  149.9691  146.8188 C.ar    1  UNL11111   -0.0127
     21 C         118.2870  153.0825  150.3228 C.3     1  UNL11111    0.0161
     22 C         121.6762  149.3744  145.6920 C.ar    1  UNL11111   -0.0571
     23 C         117.9836  151.6128  150.3844 C.ar    1  UNL11111    0.0248
     24 C         116.8024  150.9659  150.0751 C.ar    1  UNL11111    0.0564
     25 C         116.8936  149.5548  150.2654 C.ar    1  UNL11111   -0.0135
     26 C         118.1305  149.1763  150.7392 C.ar    1  UNL11111   -0.0275
     27 C         114.4935  151.0214  149.7108 C.3     1  UNL11111    0.0304
     28 H         117.7867  153.2143  148.3585 H       1  UNL11111    0.1338
     29 H         122.3564  155.0396  147.8327 H       1  UNL11111    0.0529
     30 H         122.6971  153.3955  148.3294 H       1  UNL11111    0.0529
     31 H         124.8815  154.5380  148.7937 H       1  UNL11111    0.0462
     32 H         124.8094  156.0038  147.7916 H       1  UNL11111    0.0462
     33 H         124.4973  152.3147  145.7108 H       1  UNL11111    0.0462
     34 H         124.7213  152.2280  147.4698 H       1  UNL11111    0.0462
     35 H         121.4084  155.5477  145.5186 H       1  UNL11111    0.0502
     36 H         120.9064  154.2623  144.4415 H       1  UNL11111    0.0502
     37 H         127.0949  154.5026  148.0819 H       1  UNL11111    0.0342
     38 H         126.7527  155.4228  146.6144 H       1  UNL11111    0.0342
     39 H         126.4921  153.5236  145.3913 H       1  UNL11111    0.0342
     40 H         126.9529  152.5515  146.7924 H       1  UNL11111    0.0342
     41 H         119.3164  153.6076  146.3947 H       1  UNL11111    0.0446
     42 H         120.0011  154.9559  147.2854 H       1  UNL11111    0.0446
     43 H         123.3302  153.5106  144.2765 H       1  UNL11111    0.0891
     44 H         123.0898  155.1817  143.7925 H       1  UNL11111    0.0891
     45 H         119.8426  152.0657  148.2837 H       1  UNL11111    0.0605
     46 H         120.6133  153.4030  149.1651 H       1  UNL11111    0.0605
     47 H         120.4815  152.1885  144.2616 H       1  UNL11111    0.1002
     48 H         120.6105  149.7655  143.8663 H       1  UNL11111    0.0906
     49 H         122.6947  149.3781  147.5886 H       1  UNL11111    0.1371
     50 H         117.4205  153.6277  150.7179 H       1  UNL11111    0.0805
     51 H         119.1217  153.3531  150.9813 H       1  UNL11111    0.0805
     52 H         121.7350  148.3018  145.5491 H       1  UNL11111    0.0980
     53 H         116.1067  148.8393  150.0690 H       1  UNL11111    0.1153
     54 H         118.4731  148.1780  150.9735 H       1  UNL11111    0.1125
     55 H         113.7121  151.7371  149.4374 H       1  UNL11111    0.1070
     56 H         114.2921  150.6819  150.7330 H       1  UNL11111    0.1070
     57 H         114.4436  150.1868  149.0040 H       1  UNL11111    0.1070
@<TRIPOS>BOND
     1     1    23   ar
     2     1    26   ar
     3     2     6    1
     4     2    15    1
     5     3    24    1
     6     3    27    1
     7     4    16   ar
     8     4    20   ar
     9     5    17    1
    10     5    21    1
    11     6     8    1
    12     6     9    1
    13     6    10    1
    14     7     8    1
    15     7    11    1
    16     7    14    1
    17     7    16    1
    18     9    12    1
    19    10    13    1
    20    11    15    1
    21    12    13    1
    22    14    17    1
    23    16    18   ar
    24    18    19   ar
    25    19    22   ar
    26    20    22   ar
    27    21    23    1
    28    23    24   ar
    29    24    25   ar
    30    25    26   ar
    31     5    28    1
    32     8    29    1
    33     8    30    1
    34     9    31    1
    35     9    32    1
    36    10    33    1
    37    10    34    1
    38    11    35    1
    39    11    36    1
    40    12    37    1
    41    12    38    1
    42    13    39    1
    43    13    40    1
    44    14    41    1
    45    14    42    1
    46    15    43    1
    47    15    44    1
    48    17    45    1
    49    17    46    1
    50    18    47    1
    51    19    48    1
    52    20    49    1
    53    21    50    1
    54    21    51    1
    55    22    52    1
    56    25    53    1
    57    26    54    1
    58    27    55    1
    59    27    56    1
    60    27    57    1
@<TRIPOS>MOLECULE
66553195
 57 60 0 0 0
SMALL
GASTEIGER

@<TRIPOS>ATOM
      1 S         117.2434  157.1569  144.6821 S.2     1  UNL11111   -0.1269
      2 O         124.0672  154.8075  145.7303 O.3     1  UNL11111   -0.4593
      3 O         117.9179  159.7805  147.4288 O.3     1  UNL11111   -0.5783
      4 N         121.7181  151.4429  147.2488 N.ar    1  UNL11111   -0.3349
      5 N         118.0793  155.4829  147.2183 N.3     1  UNL11111   -0.3404
      6 C         123.8736  154.1418  146.9870 C.3     1  UNL11111    0.0110
      7 C         121.4025  153.7010  146.2970 C.3     1  UNL11111    0.0128
      8 C         122.3892  154.1820  147.4013 C.3     1  UNL11111   -0.0152
      9 C         124.7379  154.8913  148.0167 C.3     1  UNL11111   -0.0341
     10 C         124.5510  152.7653  147.0018 C.3     1  UNL11111   -0.0341
     11 C         121.7792  154.4780  145.0100 C.3     1  UNL11111   -0.0192
     12 C         126.1684  154.4274  147.7452 C.3     1  UNL11111   -0.0539
     13 C         126.0458  153.0774  147.0443 C.3     1  UNL11111   -0.0539
     14 C         119.9184  153.9819  146.6999 C.3     1  UNL11111   -0.0315
     15 C         123.2545  154.3197  144.6687 C.3     1  UNL11111    0.0064
     16 C         121.4625  152.1669  146.1281 C.ar    1  UNL11111   -0.0010
     17 C         119.5321  155.4332  147.0178 C.3     1  UNL11111   -0.0284
     18 C         121.1682  151.5318  144.9193 C.ar    1  UNL11111   -0.0514
     19 C         121.1830  150.1390  144.8517 C.ar    1  UNL11111   -0.0708
     20 C         121.7270  150.0944  147.1572 C.ar    1  UNL11111   -0.0127
     21 C         117.5827  156.8418  147.4641 C.3     1  UNL11111    0.0161
     22 C         121.4725  149.4025  145.9900 C.ar    1  UNL11111   -0.0571
     23 C         117.5724  157.7509  146.2623 C.ar    1  UNL11111    0.0248
     24 C         117.7221  159.1265  146.2540 C.ar    1  UNL11111    0.0564
     25 C         117.6554  159.6737  144.9377 C.ar    1  UNL11111   -0.0135
     26 C         117.4104  158.7068  143.9886 C.ar    1  UNL11111   -0.0275
     27 C         117.7268  161.1878  147.3614 C.3     1  UNL11111    0.0304
     28 H         117.8379  154.9019  148.0199 H       1  UNL11111    0.1338
     29 H         122.1597  155.2335  147.6190 H       1  UNL11111    0.0529
     30 H         122.2360  153.6432  148.3446 H       1  UNL11111    0.0529
     31 H         124.4554  154.6131  149.0397 H       1  UNL11111    0.0462
     32 H         124.6605  155.9796  147.9217 H       1  UNL11111    0.0462
     33 H         124.3284  152.1419  146.1329 H       1  UNL11111    0.0462
     34 H         124.2776  152.2094  147.9067 H       1  UNL11111    0.0462
     35 H         121.6076  155.5489  145.1721 H       1  UNL11111    0.0502
     36 H         121.1566  154.1980  144.1547 H       1  UNL11111    0.0502
     37 H         126.7411  154.3517  148.6751 H       1  UNL11111    0.0342
     38 H         126.6900  155.1400  147.0961 H       1  UNL11111    0.0342
     39 H         126.4491  153.1486  146.0273 H       1  UNL11111    0.0342
     40 H         126.6042  152.2929  147.5646 H       1  UNL11111    0.0342
     41 H         119.6633  153.3667  147.5758 H       1  UNL11111    0.0446
     42 H         119.2683  153.6257  145.8863 H       1  UNL11111    0.0446
     43 H         123.5217  153.2878  144.4235 H       1  UNL11111    0.0891
     44 H         123.4863  154.9219  143.7838 H       1  UNL11111    0.0891
     45 H         120.0394  155.7728  147.9267 H       1  UNL11111    0.0605
     46 H         119.8207  156.0906  146.1948 H       1  UNL11111    0.0605
     47 H         120.9070  152.0891  144.0275 H       1  UNL11111    0.1002
     48 H         120.9571  149.6355  143.9159 H       1  UNL11111    0.0906
     49 H         121.9497  149.5705  148.0821 H       1  UNL11111    0.1371
     50 H         118.1478  157.2961  148.2873 H       1  UNL11111    0.0805
     51 H         116.5458  156.7593  147.8141 H       1  UNL11111    0.0805
     52 H         121.4882  148.3192  145.9708 H       1  UNL11111    0.0980
     53 H         117.7731  160.7176  144.6808 H       1  UNL11111    0.1153
     54 H         117.3070  158.8379  142.9205 H       1  UNL11111    0.1125
     55 H         117.7878  161.5837  148.3797 H       1  UNL11111    0.1070
     56 H         116.7357  161.4382  146.9664 H       1  UNL11111    0.1070
     57 H         118.5157  161.6635  146.7698 H       1  UNL11111    0.1070
@<TRIPOS>BOND
     1     1    23   ar
     2     1    26   ar
     3     2     6    1
     4     2    15    1
     5     3    24    1
     6     3    27    1
     7     4    16   ar
     8     4    20   ar
     9     5    17    1
    10     5    21    1
    11     6     8    1
    12     6     9    1
    13     6    10    1
    14     7     8    1
    15     7    11    1
    16     7    14    1
    17     7    16    1
    18     9    12    1
    19    10    13    1
    20    11    15    1
    21    12    13    1
    22    14    17    1
    23    16    18   ar
    24    18    19   ar
    25    19    22   ar
    26    20    22   ar
    27    21    23    1
    28    23    24   ar
    29    24    25   ar
    30    25    26   ar
    31     5    28    1
    32     8    29    1
    33     8    30    1
    34     9    31    1
    35     9    32    1
    36    10    33    1
    37    10    34    1
    38    11    35    1
    39    11    36    1
    40    12    37    1
    41    12    38    1
    42    13    39    1
    43    13    40    1
    44    14    41    1
    45    14    42    1
    46    15    43    1
    47    15    44    1
    48    17    45    1
    49    17    46    1
    50    18    47    1
    51    19    48    1
    52    20    49    1
    53    21    50    1
    54    21    51    1
    55    22    52    1
    56    25    53    1
    57    26    54    1
    58    27    55    1
    59    27    56    1
    60    27    57    1
@<TRIPOS>MOLECULE
66553195
 57 60 0 0 0
SMALL
GASTEIGER

@<TRIPOS>ATOM
      1 S         115.3256  155.8306  148.3298 S.2     1  UNL11111   -0.1269
      2 O         123.9732  154.8401  145.7129 O.3     1  UNL11111   -0.4593
      3 O         116.8486  154.6965  151.6911 O.3     1  UNL11111   -0.5783
      4 N         121.9018  151.3179  147.0861 N.ar    1  UNL11111   -0.3349
      5 N         118.0628  153.6678  148.4369 N.3     1  UNL11111   -0.3404
      6 C         123.8615  154.1206  146.9479 C.3     1  UNL11111    0.0110
      7 C         121.3695  153.6100  146.3417 C.3     1  UNL11111    0.0128
      8 C         122.3972  154.0631  147.4236 C.3     1  UNL11111   -0.0152
      9 C         124.7264  154.8751  147.9739 C.3     1  UNL11111   -0.0341
     10 C         124.6075  152.7816  146.8841 C.3     1  UNL11111   -0.0341
     11 C         121.6812  154.4439  145.0679 C.3     1  UNL11111   -0.0192
     12 C         126.1670  154.4942  147.6349 C.3     1  UNL11111   -0.0539
     13 C         126.0846  153.1709  146.8791 C.3     1  UNL11111   -0.0539
     14 C         119.9186  153.9773  146.7975 C.3     1  UNL11111   -0.0315
     15 C         123.1439  154.3470  144.6682 C.3     1  UNL11111    0.0064
     16 C         121.4162  152.0953  146.0855 C.ar    1  UNL11111   -0.0010
     17 C         119.4498  153.3190  148.1053 C.3     1  UNL11111   -0.0284
     18 C         120.9001  151.5219  144.9212 C.ar    1  UNL11111   -0.0514
     19 C         120.9275  150.1368  144.7648 C.ar    1  UNL11111   -0.0708
     20 C         121.9179  149.9774  146.9111 C.ar    1  UNL11111   -0.0127
     21 C         117.9303  155.0403  148.9373 C.3     1  UNL11111    0.0161
     22 C         121.4509  149.3458  145.7758 C.ar    1  UNL11111   -0.0571
     23 C         116.5290  155.2807  149.4230 C.ar    1  UNL11111    0.0248
     24 C         116.0237  155.1250  150.7002 C.ar    1  UNL11111    0.0564
     25 C         114.6369  155.4554  150.7725 C.ar    1  UNL11111   -0.0135
     26 C         114.1345  155.8527  149.5529 C.ar    1  UNL11111   -0.0275
     27 C         116.2413  154.5927  152.9715 C.3     1  UNL11111    0.0304
     28 H         117.7474  153.0452  149.1823 H       1  UNL11111    0.1338
     29 H         122.1170  155.0839  147.7240 H       1  UNL11111    0.0529
     30 H         122.3257  153.4569  148.3348 H       1  UNL11111    0.0529
     31 H         124.4964  154.5467  148.9952 H       1  UNL11111    0.0462
     32 H         124.5918  155.9609  147.9230 H       1  UNL11111    0.0462
     33 H         124.3789  152.1786  146.0024 H       1  UNL11111    0.0462
     34 H         124.4013  152.1805  147.7779 H       1  UNL11111    0.0462
     35 H         121.4662  155.5005  145.2820 H       1  UNL11111    0.0502
     36 H         121.0427  154.1731  144.2214 H       1  UNL11111    0.0502
     37 H         126.7740  154.4066  148.5418 H       1  UNL11111    0.0342
     38 H         126.6315  155.2590  147.0021 H       1  UNL11111    0.0342
     39 H         126.4388  153.3077  145.8507 H       1  UNL11111    0.0342
     40 H         126.7053  152.3960  147.3400 H       1  UNL11111    0.0342
     41 H         119.2093  153.7159  145.9995 H       1  UNL11111    0.0446
     42 H         119.8606  155.0677  146.9065 H       1  UNL11111    0.0446
     43 H         123.4344  153.3303  144.3880 H       1  UNL11111    0.0891
     44 H         123.3216  154.9786  143.7913 H       1  UNL11111    0.0891
     45 H         119.4789  152.2305  147.9935 H       1  UNL11111    0.0605
     46 H         120.1112  153.5690  148.9416 H       1  UNL11111    0.0605
     47 H         120.4557  152.1239  144.1369 H       1  UNL11111    0.1002
     48 H         120.5308  149.6812  143.8619 H       1  UNL11111    0.0906
     49 H         122.3290  149.4085  147.7398 H       1  UNL11111    0.1371
     50 H         118.1716  155.7653  148.1520 H       1  UNL11111    0.0805
     51 H         118.6310  155.2160  149.7630 H       1  UNL11111    0.0805
     52 H         121.4835  148.2663  145.6863 H       1  UNL11111    0.0980
     53 H         114.0213  155.4091  151.6607 H       1  UNL11111    0.1153
     54 H         113.1231  156.1553  149.3197 H       1  UNL11111    0.1125
     55 H         117.0047  154.2524  153.6778 H       1  UNL11111    0.1070
     56 H         115.4357  153.8507  152.9682 H       1  UNL11111    0.1070
     57 H         115.8775  155.5661  153.3177 H       1  UNL11111    0.1070
@<TRIPOS>BOND
     1     1    23   ar
     2     1    26   ar
     3     2     6    1
     4     2    15    1
     5     3    24    1
     6     3    27    1
     7     4    16   ar
     8     4    20   ar
     9     5    17    1
    10     5    21    1
    11     6     8    1
    12     6     9    1
    13     6    10    1
    14     7     8    1
    15     7    11    1
    16     7    14    1
    17     7    16    1
    18     9    12    1
    19    10    13    1
    20    11    15    1
    21    12    13    1
    22    14    17    1
    23    16    18   ar
    24    18    19   ar
    25    19    22   ar
    26    20    22   ar
    27    21    23    1
    28    23    24   ar
    29    24    25   ar
    30    25    26   ar
    31     5    28    1
    32     8    29    1
    33     8    30    1
    34     9    31    1
    35     9    32    1
    36    10    33    1
    37    10    34    1
    38    11    35    1
    39    11    36    1
    40    12    37    1
    41    12    38    1
    42    13    39    1
    43    13    40    1
    44    14    41    1
    45    14    42    1
    46    15    43    1
    47    15    44    1
    48    17    45    1
    49    17    46    1
    50    18    47    1
    51    19    48    1
    52    20    49    1
    53    21    50    1
    54    21    51    1
    55    22    52    1
    56    25    53    1
    57    26    54    1
    58    27    55    1
    59    27    56    1
    60    27    57    1
@<TRIPOS>MOLECULE
66553195
 57 60 0 0 0
SMALL
GASTEIGER

@<TRIPOS>ATOM
      1 S         115.4791  150.8342  146.4099 S.2     1  UNL11111   -0.1269
      2 O         123.8816  154.9886  145.7936 O.3     1  UNL11111   -0.4593
      3 O         117.2189  151.8300  143.1090 O.3     1  UNL11111   -0.5783
      4 N         121.7222  151.2669  147.1670 N.ar    1  UNL11111   -0.3349
      5 N         117.4826  153.6224  146.4765 N.3     1  UNL11111   -0.3404
      6 C         123.8039  154.1836  146.9778 C.3     1  UNL11111    0.0110
      7 C         121.3673  153.5449  146.3182 C.3     1  UNL11111    0.0128
      8 C         122.3437  154.0392  147.4316 C.3     1  UNL11111   -0.0152
      9 C         124.6337  154.9026  148.0551 C.3     1  UNL11111   -0.0341
     10 C         124.5957  152.8778  146.8324 C.3     1  UNL11111   -0.0341
     11 C         121.6163  154.4560  145.0892 C.3     1  UNL11111   -0.0192
     12 C         126.0879  154.5994  147.6983 C.3     1  UNL11111   -0.0539
     13 C         126.0592  153.3137  146.8764 C.3     1  UNL11111   -0.0539
     14 C         119.9098  153.7569  146.8519 C.3     1  UNL11111   -0.0315
     15 C         123.0899  154.5242  144.7082 C.3     1  UNL11111    0.0064
     16 C         121.5607  152.0415  146.0636 C.ar    1  UNL11111   -0.0010
     17 C         118.7939  153.3539  145.8763 C.3     1  UNL11111   -0.0284
     18 C         121.5078  151.4681  144.7912 C.ar    1  UNL11111   -0.0514
     19 C         121.6438  150.0871  144.6521 C.ar    1  UNL11111   -0.0708
     20 C         121.8463  149.9312  147.0073 C.ar    1  UNL11111   -0.0127
     21 C         116.3817  153.3276  145.5488 C.3     1  UNL11111    0.0161
     22 C         121.8175  149.3001  145.7800 C.ar    1  UNL11111   -0.0571
     23 C         116.2281  151.8626  145.2571 C.ar    1  UNL11111    0.0248
     24 C         116.6127  151.1641  144.1271 C.ar    1  UNL11111    0.0564
     25 C         116.2984  149.7748  144.2221 C.ar    1  UNL11111   -0.0135
     26 C         115.6832  149.4627  145.4143 C.ar    1  UNL11111   -0.0275
     27 C         117.6340  151.0114  142.0248 C.3     1  UNL11111    0.0304
     28 H         117.4276  154.6045  146.7387 H       1  UNL11111    0.1338
     29 H         122.0044  155.0382  147.7444 H       1  UNL11111    0.0529
     30 H         122.2822  153.4138  148.3312 H       1  UNL11111    0.0529
     31 H         124.4142  154.4994  149.0516 H       1  UNL11111    0.0462
     32 H         124.4575  155.9834  148.0742 H       1  UNL11111    0.0462
     33 H         124.4004  152.3291  145.9085 H       1  UNL11111    0.0462
     34 H         124.3954  152.2085  147.6780 H       1  UNL11111    0.0462
     35 H         121.2926  155.4751  145.3438 H       1  UNL11111    0.0502
     36 H         121.0252  154.1595  144.2175 H       1  UNL11111    0.0502
     37 H         126.7009  154.4927  148.5991 H       1  UNL11111    0.0342
     38 H         126.5178  155.4137  147.1039 H       1  UNL11111    0.0342
     39 H         126.4283  153.5122  145.8634 H       1  UNL11111    0.0342
     40 H         126.6950  152.5357  147.3108 H       1  UNL11111    0.0342
     41 H         119.7779  154.8161  147.1142 H       1  UNL11111    0.0446
     42 H         119.7787  153.1949  147.7877 H       1  UNL11111    0.0446
     43 H         123.4709  153.5666  144.3426 H       1  UNL11111    0.0891
     44 H         123.2154  155.2406  143.8892 H       1  UNL11111    0.0891
     45 H         118.8912  153.9183  144.9431 H       1  UNL11111    0.0605
     46 H         118.8826  152.2884  145.6487 H       1  UNL11111    0.0605
     47 H         121.3467  152.0604  143.8988 H       1  UNL11111    0.1002
     48 H         121.6035  149.6305  143.6674 H       1  UNL11111    0.0906
     49 H         121.9708  149.3665  147.9265 H       1  UNL11111    0.1371
     50 H         116.5056  153.8985  144.6202 H       1  UNL11111    0.0805
     51 H         115.4517  153.6974  145.9993 H       1  UNL11111    0.0805
     52 H         121.9195  148.2239  145.7066 H       1  UNL11111    0.0980
     53 H         116.5053  149.0264  143.4693 H       1  UNL11111    0.1153
     54 H         115.3419  148.4936  145.7505 H       1  UNL11111    0.1125
     55 H         118.1178  151.6561  141.2847 H       1  UNL11111    0.1070
     56 H         116.7771  150.5321  141.5395 H       1  UNL11111    0.1070
     57 H         118.3695  150.2673  142.3493 H       1  UNL11111    0.1070
@<TRIPOS>BOND
     1     1    23   ar
     2     1    26   ar
     3     2     6    1
     4     2    15    1
     5     3    24    1
     6     3    27    1
     7     4    16   ar
     8     4    20   ar
     9     5    17    1
    10     5    21    1
    11     6     8    1
    12     6     9    1
    13     6    10    1
    14     7     8    1
    15     7    11    1
    16     7    14    1
    17     7    16    1
    18     9    12    1
    19    10    13    1
    20    11    15    1
    21    12    13    1
    22    14    17    1
    23    16    18   ar
    24    18    19   ar
    25    19    22   ar
    26    20    22   ar
    27    21    23    1
    28    23    24   ar
    29    24    25   ar
    30    25    26   ar
    31     5    28    1
    32     8    29    1
    33     8    30    1
    34     9    31    1
    35     9    32    1
    36    10    33    1
    37    10    34    1
    38    11    35    1
    39    11    36    1
    40    12    37    1
    41    12    38    1
    42    13    39    1
    43    13    40    1
    44    14    41    1
    45    14    42    1
    46    15    43    1
    47    15    44    1
    48    17    45    1
    49    17    46    1
    50    18    47    1
    51    19    48    1
    52    20    49    1
    53    21    50    1
    54    21    51    1
    55    22    52    1
    56    25    53    1
    57    26    54    1
    58    27    55    1
    59    27    56    1
    60    27    57    1
@<TRIPOS>MOLECULE
66553195
 57 60 0 0 0
SMALL
GASTEIGER

@<TRIPOS>ATOM
      1 S         115.3743  154.9413  148.6570 S.2     1  UNL11111   -0.1269
      2 O         124.0662  154.9668  145.7936 O.3     1  UNL11111   -0.4593
      3 O         114.7997  151.2272  147.7726 O.3     1  UNL11111   -0.5783
      4 N         121.2981  151.8020  144.7438 N.ar    1  UNL11111   -0.3349
      5 N         118.2331  153.5405  148.5519 N.3     1  UNL11111   -0.3404
      6 C         123.9984  154.1919  146.9953 C.3     1  UNL11111    0.0110
      7 C         121.5267  153.6065  146.4077 C.3     1  UNL11111    0.0128
      8 C         122.5444  154.0632  147.4904 C.3     1  UNL11111   -0.0152
      9 C         124.8585  154.9258  148.0388 C.3     1  UNL11111   -0.0341
     10 C         124.7800  152.8787  146.8601 C.3     1  UNL11111   -0.0341
     11 C         121.7808  154.5119  145.1642 C.3     1  UNL11111   -0.0192
     12 C         126.3024  154.6078  147.6522 C.3     1  UNL11111   -0.0539
     13 C         126.2459  153.3090  146.8523 C.3     1  UNL11111   -0.0539
     14 C         120.0571  153.8953  146.8627 C.3     1  UNL11111   -0.0315
     15 C         123.2378  154.4938  144.7361 C.3     1  UNL11111    0.0064
     16 C         121.6232  152.1203  146.0227 C.ar    1  UNL11111   -0.0010
     17 C         119.5828  153.1631  148.1272 C.3     1  UNL11111   -0.0284
     18 C         121.9507  151.1226  146.9436 C.ar    1  UNL11111   -0.0514
     19 C         121.9752  149.7889  146.5377 C.ar    1  UNL11111   -0.0708
     20 C         121.3295  150.5025  144.3733 C.ar    1  UNL11111   -0.0127
     21 C         117.1963  153.0656  147.6308 C.3     1  UNL11111    0.0161
     22 C         121.6617  149.4690  145.2261 C.ar    1  UNL11111   -0.0571
     23 C         115.8116  153.3620  148.1328 C.ar    1  UNL11111    0.0248
     24 C         114.7198  152.5188  148.1697 C.ar    1  UNL11111    0.0564
     25 C         113.5551  153.1300  148.7071 C.ar    1  UNL11111   -0.0135
     26 C         113.7737  154.4539  149.0149 C.ar    1  UNL11111   -0.0275
     27 C         114.2068  151.0485  146.4885 C.3     1  UNL11111    0.0304
     28 H         118.1538  154.5531  148.6339 H       1  UNL11111    0.1338
     29 H         122.2297  155.0641  147.8224 H       1  UNL11111    0.0529
     30 H         122.5070  153.4360  148.3872 H       1  UNL11111    0.0529
     31 H         124.6609  154.5430  149.0478 H       1  UNL11111    0.0462
     32 H         124.6887  156.0079  148.0414 H       1  UNL11111    0.0462
     33 H         124.5550  152.3094  145.9553 H       1  UNL11111    0.0462
     34 H         124.6031  152.2319  147.7278 H       1  UNL11111    0.0462
     35 H         121.5232  155.5480  145.4254 H       1  UNL11111    0.0502
     36 H         121.1381  154.2408  144.3183 H       1  UNL11111    0.0502
     37 H         126.9361  154.5118  148.5397 H       1  UNL11111    0.0342
     38 H         126.7228  155.4096  147.0343 H       1  UNL11111    0.0342
     39 H         126.5845  153.4900  145.8254 H       1  UNL11111    0.0342
     40 H         126.8923  152.5361  147.2798 H       1  UNL11111    0.0342
     41 H         119.3874  153.6470  146.0291 H       1  UNL11111    0.0446
     42 H         119.9433  154.9751  147.0326 H       1  UNL11111    0.0446
     43 H         123.5669  153.5064  144.3999 H       1  UNL11111    0.0891
     44 H         123.3750  155.1759  143.8904 H       1  UNL11111    0.0891
     45 H         119.6207  152.0772  147.9987 H       1  UNL11111    0.0605
     46 H         120.2553  153.4010  148.9579 H       1  UNL11111    0.0605
     47 H         122.1737  151.3506  147.9797 H       1  UNL11111    0.1002
     48 H         122.2296  149.0064  147.2473 H       1  UNL11111    0.0906
     49 H         121.0673  150.3112  143.3368 H       1  UNL11111    0.1371
     50 H         117.3047  151.9831  147.4920 H       1  UNL11111    0.0805
     51 H         117.2989  153.5348  146.6457 H       1  UNL11111    0.0805
     52 H         121.6683  148.4420  144.8801 H       1  UNL11111    0.0980
     53 H         112.6081  152.6285  148.8567 H       1  UNL11111    0.1153
     54 H         113.0707  155.1626  149.4300 H       1  UNL11111    0.1125
     55 H         114.3202  149.9971  146.2079 H       1  UNL11111    0.1070
     56 H         114.7177  151.6579  145.7342 H       1  UNL11111    0.1070
     57 H         113.1372  151.2833  146.5064 H       1  UNL11111    0.1070
@<TRIPOS>BOND
     1     1    23   ar
     2     1    26   ar
     3     2     6    1
     4     2    15    1
     5     3    24    1
     6     3    27    1
     7     4    16   ar
     8     4    20   ar
     9     5    17    1
    10     5    21    1
    11     6     8    1
    12     6     9    1
    13     6    10    1
    14     7     8    1
    15     7    11    1
    16     7    14    1
    17     7    16    1
    18     9    12    1
    19    10    13    1
    20    11    15    1
    21    12    13    1
    22    14    17    1
    23    16    18   ar
    24    18    19   ar
    25    19    22   ar
    26    20    22   ar
    27    21    23    1
    28    23    24   ar
    29    24    25   ar
    30    25    26   ar
    31     5    28    1
    32     8    29    1
    33     8    30    1
    34     9    31    1
    35     9    32    1
    36    10    33    1
    37    10    34    1
    38    11    35    1
    39    11    36    1
    40    12    37    1
    41    12    38    1
    42    13    39    1
    43    13    40    1
    44    14    41    1
    45    14    42    1
    46    15    43    1
    47    15    44    1
    48    17    45    1
    49    17    46    1
    50    18    47    1
    51    19    48    1
    52    20    49    1
    53    21    50    1
    54    21    51    1
    55    22    52    1
    56    25    53    1
    57    26    54    1
    58    27    55    1
    59    27    56    1
    60    27    57    1
@<TRIPOS>MOLECULE
66553195
 57 60 0 0 0
SMALL
GASTEIGER

@<TRIPOS>ATOM
      1 S         116.6232  157.4997  145.3106 S.2     1  UNL11111   -0.1269
      2 O         124.1457  154.8083  145.7506 O.3     1  UNL11111   -0.4593
      3 O         117.9792  154.1609  143.9310 O.3     1  UNL11111   -0.5783
      4 N         121.6653  151.6668  144.9257 N.ar    1  UNL11111   -0.3349
      5 N         118.2792  155.5812  147.5525 N.3     1  UNL11111   -0.3404
      6 C         124.0163  154.1146  146.9971 C.3     1  UNL11111    0.0110
      7 C         121.5251  153.6500  146.4178 C.3     1  UNL11111    0.0128
      8 C         122.5539  154.1324  147.4774 C.3     1  UNL11111   -0.0152
      9 C         124.9189  154.8483  148.0043 C.3     1  UNL11111   -0.0341
     10 C         124.6937  152.7386  146.9594 C.3     1  UNL11111   -0.0341
     11 C         121.8382  154.4191  145.1057 C.3     1  UNL11111   -0.0192
     12 C         126.3371  154.3981  147.6596 C.3     1  UNL11111   -0.0539
     13 C         126.1896  153.0500  146.9597 C.3     1  UNL11111   -0.0539
     14 C         120.0541  153.9313  146.8805 C.3     1  UNL11111   -0.0315
     15 C         123.3060  154.3148  144.7094 C.3     1  UNL11111    0.0064
     16 C         121.5988  152.1210  146.2031 C.ar    1  UNL11111   -0.0010
     17 C         119.6430  155.4037  147.0344 C.3     1  UNL11111   -0.0284
     18 C         121.5394  151.2316  147.2806 C.ar    1  UNL11111   -0.0514
     19 C         121.5805  149.8593  147.0430 C.ar    1  UNL11111   -0.0708
     20 C         121.7028  150.3311  144.7223 C.ar    1  UNL11111   -0.0127
     21 C         117.2183  155.1208  146.6430 C.3     1  UNL11111    0.0161
     22 C         121.6672  149.3963  145.7389 C.ar    1  UNL11111   -0.0571
     23 C         117.1740  155.8741  145.3438 C.ar    1  UNL11111    0.0248
     24 C         117.5323  155.4335  144.0836 C.ar    1  UNL11111    0.0564
     25 C         117.3627  156.4441  143.0914 C.ar    1  UNL11111   -0.0135
     26 C         116.8787  157.6179  143.6262 C.ar    1  UNL11111   -0.0275
     27 C         118.5074  153.8572  142.6480 C.3     1  UNL11111    0.0304
     28 H         118.1253  156.5768  147.7155 H       1  UNL11111    0.1338
     29 H         122.3227  155.1777  147.7185 H       1  UNL11111    0.0529
     30 H         122.4551  153.5838  148.4211 H       1  UNL11111    0.0529
     31 H         124.6831  154.5470  149.0326 H       1  UNL11111    0.0462
     32 H         124.8316  155.9379  147.9358 H       1  UNL11111    0.0462
     33 H         124.4433  152.1325  146.0861 H       1  UNL11111    0.0462
     34 H         124.4462  152.1619  147.8590 H       1  UNL11111    0.0462
     35 H         121.6373  155.4864  145.2534 H       1  UNL11111    0.0502
     36 H         121.1980  154.0897  144.2795 H       1  UNL11111    0.0502
     37 H         126.9580  154.3250  148.5583 H       1  UNL11111    0.0342
     38 H         126.8174  155.1179  146.9869 H       1  UNL11111    0.0342
     39 H         126.5642  153.1224  145.9319 H       1  UNL11111    0.0342
     40 H         126.7609  152.2633  147.4625 H       1  UNL11111    0.0342
     41 H         119.8754  153.4308  147.8424 H       1  UNL11111    0.0446
     42 H         119.3810  153.4485  146.1611 H       1  UNL11111    0.0446
     43 H         123.6059  153.3024  144.4280 H       1  UNL11111    0.0891
     44 H         123.4841  154.9438  143.8304 H       1  UNL11111    0.0891
     45 H         120.3078  155.8871  147.7566 H       1  UNL11111    0.0605
     46 H         119.7578  155.9527  146.0962 H       1  UNL11111    0.0605
     47 H         121.4499  151.5874  148.3016 H       1  UNL11111    0.1002
     48 H         121.5372  149.1593  147.8725 H       1  UNL11111    0.0906
     49 H         121.7630  150.0241  143.6823 H       1  UNL11111    0.1371
     50 H         116.2588  155.2532  147.1596 H       1  UNL11111    0.0805
     51 H         117.2952  154.0418  146.4725 H       1  UNL11111    0.0805
     52 H         121.6982  148.3355  145.5196 H       1  UNL11111    0.0980
     53 H         117.5758  156.3350  142.0365 H       1  UNL11111    0.1153
     54 H         116.6584  158.5403  143.1066 H       1  UNL11111    0.1125
     55 H         118.8954  152.8344  142.6790 H       1  UNL11111    0.1070
     56 H         119.3395  154.5221  142.3921 H       1  UNL11111    0.1070
     57 H         117.7257  153.8953  141.8820 H       1  UNL11111    0.1070
@<TRIPOS>BOND
     1     1    23   ar
     2     1    26   ar
     3     2     6    1
     4     2    15    1
     5     3    24    1
     6     3    27    1
     7     4    16   ar
     8     4    20   ar
     9     5    17    1
    10     5    21    1
    11     6     8    1
    12     6     9    1
    13     6    10    1
    14     7     8    1
    15     7    11    1
    16     7    14    1
    17     7    16    1
    18     9    12    1
    19    10    13    1
    20    11    15    1
    21    12    13    1
    22    14    17    1
    23    16    18   ar
    24    18    19   ar
    25    19    22   ar
    26    20    22   ar
    27    21    23    1
    28    23    24   ar
    29    24    25   ar
    30    25    26   ar
    31     5    28    1
    32     8    29    1
    33     8    30    1
    34     9    31    1
    35     9    32    1
    36    10    33    1
    37    10    34    1
    38    11    35    1
    39    11    36    1
    40    12    37    1
    41    12    38    1
    42    13    39    1
    43    13    40    1
    44    14    41    1
    45    14    42    1
    46    15    43    1
    47    15    44    1
    48    17    45    1
    49    17    46    1
    50    18    47    1
    51    19    48    1
    52    20    49    1
    53    21    50    1
    54    21    51    1
    55    22    52    1
    56    25    53    1
    57    26    54    1
    58    27    55    1
    59    27    56    1
    60    27    57    1
@<TRIPOS>MOLECULE
66553195
 57 60 0 0 0
SMALL
GASTEIGER

@<TRIPOS>ATOM
      1 S         117.8073  148.7684  148.6976 S.2     1  UNL11111   -0.1269
      2 O         123.9071  154.9971  145.5863 O.3     1  UNL11111   -0.4593
      3 O         120.9925  149.9080  150.5564 O.3     1  UNL11111   -0.5783
      4 N         121.2896  151.6455  144.7938 N.ar    1  UNL11111   -0.3349
      5 N         118.9838  151.9046  148.0571 N.3     1  UNL11111   -0.3404
      6 C         123.9007  154.2931  146.8322 C.3     1  UNL11111    0.0110
      7 C         121.4425  153.5561  146.3401 C.3     1  UNL11111    0.0128
      8 C         122.4641  154.1276  147.3666 C.3     1  UNL11111   -0.0152
      9 C         124.7428  155.1274  147.8139 C.3     1  UNL11111   -0.0341
     10 C         124.7441  153.0135  146.7569 C.3     1  UNL11111   -0.0341
     11 C         121.6339  154.3926  145.0358 C.3     1  UNL11111   -0.0192
     12 C         126.1948  154.8512  147.4253 C.3     1  UNL11111   -0.0539
     13 C         126.1856  153.5144  146.6892 C.3     1  UNL11111   -0.0539
     14 C         119.9691  153.8273  146.8095 C.3     1  UNL11111   -0.0315
     15 C         123.0822  154.4195  144.5782 C.3     1  UNL11111    0.0064
     16 C         121.6173  152.0591  146.0442 C.ar    1  UNL11111   -0.0010
     17 C         119.5197  153.2573  148.1647 C.3     1  UNL11111   -0.0284
     18 C         122.0286  151.1395  147.0122 C.ar    1  UNL11111   -0.0514
     19 C         122.1147  149.7862  146.6871 C.ar    1  UNL11111   -0.0708
     20 C         121.3803  150.3293  144.5020 C.ar    1  UNL11111   -0.0127
     21 C         118.6644  151.3399  149.3697 C.3     1  UNL11111    0.0161
     22 C         121.7861  149.3693  145.4069 C.ar    1  UNL11111   -0.0571
     23 C         118.9276  149.8611  149.3993 C.ar    1  UNL11111    0.0248
     24 C         120.0011  149.1959  149.9604 C.ar    1  UNL11111    0.0564
     25 C         119.9122  147.7830  149.7871 C.ar    1  UNL11111   -0.0135
     26 C         118.7645  147.4174  149.1183 C.ar    1  UNL11111   -0.0275
     27 C         121.7495  149.1722  151.5090 C.3     1  UNL11111    0.0304
     28 H         119.6308  151.2909  147.5676 H       1  UNL11111    0.1338
     29 H         122.1093  155.1313  147.6451 H       1  UNL11111    0.0529
     30 H         122.4794  153.5567  148.3006 H       1  UNL11111    0.0529
     31 H         124.5771  154.7989  148.8476 H       1  UNL11111    0.0462
     32 H         124.5238  156.1989  147.7543 H       1  UNL11111    0.0462
     33 H         124.5305  152.3808  145.8925 H       1  UNL11111    0.0462
     34 H         124.6182  152.4123  147.6653 H       1  UNL11111    0.0462
     35 H         121.3324  155.4306  145.2360 H       1  UNL11111    0.0502
     36 H         120.9896  154.0391  144.2222 H       1  UNL11111    0.0502
     37 H         126.8395  154.8228  148.3098 H       1  UNL11111    0.0342
     38 H         126.5766  155.6394  146.7666 H       1  UNL11111    0.0342
     39 H         126.4883  153.6629  145.6460 H       1  UNL11111    0.0342
     40 H         126.8814  152.7961  147.1340 H       1  UNL11111    0.0342
     41 H         119.2658  153.5026  146.0293 H       1  UNL11111    0.0446
     42 H         119.8362  154.9167  146.8792 H       1  UNL11111    0.0446
     43 H         123.4543  153.4310  144.2944 H       1  UNL11111    0.0891
     44 H         123.1689  155.0548  143.6904 H       1  UNL11111    0.0891
     45 H         120.3434  153.3015  148.8838 H       1  UNL11111    0.0605
     46 H         118.7220  153.9029  148.5528 H       1  UNL11111    0.0605
     47 H         122.2531  151.4395  148.0297 H       1  UNL11111    0.1002
     48 H         122.4199  149.0635  147.4384 H       1  UNL11111    0.0906
     49 H         121.1022  150.0617  143.4868 H       1  UNL11111    0.1371
     50 H         117.6131  151.5449  149.6041 H       1  UNL11111    0.0805
     51 H         119.2559  151.8104  150.1654 H       1  UNL11111    0.0805
     52 H         121.8342  148.3244  145.1244 H       1  UNL11111    0.0980
     53 H         120.6423  147.0587  150.1220 H       1  UNL11111    0.1153
     54 H         118.4409  146.4205  148.8529 H       1  UNL11111    0.1125
     55 H         122.4140  149.8745  152.0217 H       1  UNL11111    0.1070
     56 H         122.3746  148.4188  151.0192 H       1  UNL11111    0.1070
     57 H         121.1012  148.7136  152.2640 H       1  UNL11111    0.1070
@<TRIPOS>BOND
     1     1    23   ar
     2     1    26   ar
     3     2     6    1
     4     2    15    1
     5     3    24    1
     6     3    27    1
     7     4    16   ar
     8     4    20   ar
     9     5    17    1
    10     5    21    1
    11     6     8    1
    12     6     9    1
    13     6    10    1
    14     7     8    1
    15     7    11    1
    16     7    14    1
    17     7    16    1
    18     9    12    1
    19    10    13    1
    20    11    15    1
    21    12    13    1
    22    14    17    1
    23    16    18   ar
    24    18    19   ar
    25    19    22   ar
    26    20    22   ar
    27    21    23    1
    28    23    24   ar
    29    24    25   ar
    30    25    26   ar
    31     5    28    1
    32     8    29    1
    33     8    30    1
    34     9    31    1
    35     9    32    1
    36    10    33    1
    37    10    34    1
    38    11    35    1
    39    11    36    1
    40    12    37    1
    41    12    38    1
    42    13    39    1
    43    13    40    1
    44    14    41    1
    45    14    42    1
    46    15    43    1
    47    15    44    1
    48    17    45    1
    49    17    46    1
    50    18    47    1
    51    19    48    1
    52    20    49    1
    53    21    50    1
    54    21    51    1
    55    22    52    1
    56    25    53    1
    57    26    54    1
    58    27    55    1
    59    27    56    1
    60    27    57    1
@<TRIPOS>MOLECULE
66553195
 57 60 0 0 0
SMALL
GASTEIGER

@<TRIPOS>ATOM
      1 S         115.2348  152.9961  149.3644 S.2     1  UNL11111   -0.1269
      2 O         123.8756  155.0268  145.6288 O.3     1  UNL11111   -0.4593
      3 O         117.1884  152.8083  152.6884 O.3     1  UNL11111   -0.5783
      4 N         121.1546  151.7849  144.7116 N.ar    1  UNL11111   -0.3349
      5 N         118.3727  153.3372  148.7795 N.3     1  UNL11111   -0.3404
      6 C         123.9354  154.2197  146.8093 C.3     1  UNL11111    0.0110
      7 C         121.4449  153.5510  146.4080 C.3     1  UNL11111    0.0128
      8 C         122.5336  154.0183  147.4167 C.3     1  UNL11111   -0.0152
      9 C         124.8476  154.9611  147.8025 C.3     1  UNL11111   -0.0341
     10 C         124.7534  152.9433  146.5744 C.3     1  UNL11111   -0.0341
     11 C         121.5594  154.5026  145.1798 C.3     1  UNL11111   -0.0192
     12 C         126.2674  154.7102  147.2968 C.3     1  UNL11111   -0.0539
     13 C         126.1972  153.4310  146.4673 C.3     1  UNL11111   -0.0539
     14 C         120.0145  153.7708  147.0051 C.3     1  UNL11111   -0.0315
     15 C         122.9755  154.5531  144.6314 C.3     1  UNL11111    0.0064
     16 C         121.5690  152.0820  145.9691 C.ar    1  UNL11111   -0.0010
     17 C         119.6622  152.9161  148.2293 C.3     1  UNL11111   -0.0284
     18 C         122.0129  151.0742  146.8290 C.ar    1  UNL11111   -0.0514
     19 C         122.0615  149.7548  146.3809 C.ar    1  UNL11111   -0.0708
     20 C         121.2112  150.4990  144.2988 C.ar    1  UNL11111   -0.0127
     21 C         117.9319  152.4133  149.8308 C.3     1  UNL11111    0.0161
     22 C         121.6560  149.4580  145.0892 C.ar    1  UNL11111   -0.0571
     23 C         116.5961  152.8032  150.3968 C.ar    1  UNL11111    0.0248
     24 C         116.2470  152.9717  151.7238 C.ar    1  UNL11111    0.0564
     25 C         114.8759  153.3335  151.8815 C.ar    1  UNL11111   -0.0135
     26 C         114.2124  153.3831  150.6760 C.ar    1  UNL11111   -0.0275
     27 C         116.6641  152.5054  153.9743 C.3     1  UNL11111    0.0304
     28 H         117.6654  153.3410  148.0443 H       1  UNL11111    0.1338
     29 H         122.2111  154.9965  147.8043 H       1  UNL11111    0.0529
     30 H         122.5946  153.3669  148.2946 H       1  UNL11111    0.0529
     31 H         124.7446  154.5461  148.8129 H       1  UNL11111    0.0462
     32 H         124.6379  156.0352  147.8483 H       1  UNL11111    0.0462
     33 H         124.4797  152.3910  145.6726 H       1  UNL11111    0.0462
     34 H         124.6694  152.2663  147.4331 H       1  UNL11111    0.0462
     35 H         121.2865  155.5193  145.4957 H       1  UNL11111    0.0502
     36 H         120.8583  154.2310  144.3817 H       1  UNL11111    0.0502
     37 H         126.9715  154.6167  148.1299 H       1  UNL11111    0.0342
     38 H         126.6081  155.5434  146.6716 H       1  UNL11111    0.0342
     39 H         126.4489  153.6508  145.4232 H       1  UNL11111    0.0342
     40 H         126.9027  152.6733  146.8226 H       1  UNL11111    0.0342
     41 H         119.2647  153.5796  146.2236 H       1  UNL11111    0.0446
     42 H         119.9051  154.8308  147.2752 H       1  UNL11111    0.0446
     43 H         123.3104  153.5889  144.2381 H       1  UNL11111    0.0891
     44 H         123.0161  155.2634  143.7989 H       1  UNL11111    0.0891
     45 H         119.6044  151.8628  147.9366 H       1  UNL11111    0.0605
     46 H         120.4307  153.0212  149.0015 H       1  UNL11111    0.0605
     47 H         122.3126  151.2842  147.8493 H       1  UNL11111    0.1002
     48 H         122.4086  148.9653  147.0416 H       1  UNL11111    0.0906
     49 H         120.8742  150.3257  143.2809 H       1  UNL11111    0.1371
     50 H         118.6812  152.3972  150.6311 H       1  UNL11111    0.0805
     51 H         117.8548  151.3919  149.4360 H       1  UNL11111    0.0805
     52 H         121.6794  148.4429  144.7105 H       1  UNL11111    0.0980
     53 H         114.3858  153.5504  152.8212 H       1  UNL11111    0.1153
     54 H         113.1729  153.6244  150.5015 H       1  UNL11111    0.1125
     55 H         117.5074  152.2783  154.6336 H       1  UNL11111    0.1070
     56 H         116.0195  151.6200  153.9394 H       1  UNL11111    0.1070
     57 H         116.1307  153.3618  154.3986 H       1  UNL11111    0.1070
@<TRIPOS>BOND
     1     1    23   ar
     2     1    26   ar
     3     2     6    1
     4     2    15    1
     5     3    24    1
     6     3    27    1
     7     4    16   ar
     8     4    20   ar
     9     5    17    1
    10     5    21    1
    11     6     8    1
    12     6     9    1
    13     6    10    1
    14     7     8    1
    15     7    11    1
    16     7    14    1
    17     7    16    1
    18     9    12    1
    19    10    13    1
    20    11    15    1
    21    12    13    1
    22    14    17    1
    23    16    18   ar
    24    18    19   ar
    25    19    22   ar
    26    20    22   ar
    27    21    23    1
    28    23    24   ar
    29    24    25   ar
    30    25    26   ar
    31     5    28    1
    32     8    29    1
    33     8    30    1
    34     9    31    1
    35     9    32    1
    36    10    33    1
    37    10    34    1
    38    11    35    1
    39    11    36    1
    40    12    37    1
    41    12    38    1
    42    13    39    1
    43    13    40    1
    44    14    41    1
    45    14    42    1
    46    15    43    1
    47    15    44    1
    48    17    45    1
    49    17    46    1
    50    18    47    1
    51    19    48    1
    52    20    49    1
    53    21    50    1
    54    21    51    1
    55    22    52    1
    56    25    53    1
    57    26    54    1
    58    27    55    1
    59    27    56    1
    60    27    57    1
@<TRIPOS>MOLECULE
66553195
 57 60 0 0 0
SMALL
GASTEIGER

@<TRIPOS>ATOM
      1 S         115.0973  152.7822  149.4608 S.2     1  UNL11111   -0.1269
      2 O         123.8745  154.9288  145.7261 O.3     1  UNL11111   -0.4593
      3 O         117.2916  153.7492  152.4881 O.3     1  UNL11111   -0.5783
      4 N         121.2089  151.6919  144.7066 N.ar    1  UNL11111   -0.3349
      5 N         118.2788  153.3227  148.7059 N.3     1  UNL11111   -0.3404
      6 C         123.8862  154.1234  146.9089 C.3     1  UNL11111    0.0110
      7 C         121.4109  153.4602  146.4141 C.3     1  UNL11111    0.0128
      8 C         122.4619  153.9274  147.4619 C.3     1  UNL11111   -0.0152
      9 C         124.7607  154.8629  147.9368 C.3     1  UNL11111   -0.0341
     10 C         124.7075  152.8433  146.7083 C.3     1  UNL11111   -0.0341
     11 C         121.5754  154.4078  145.1881 C.3     1  UNL11111   -0.0192
     12 C         126.1989  154.6037  147.4913 C.3     1  UNL11111   -0.0539
     13 C         126.1564  153.3253  146.6587 C.3     1  UNL11111   -0.0539
     14 C         119.9594  153.6853  146.9555 C.3     1  UNL11111   -0.0315
     15 C         123.0123  154.4556  144.6953 C.3     1  UNL11111    0.0064
     16 C         121.5492  151.9894  145.9861 C.ar    1  UNL11111   -0.0010
     17 C         119.5728  152.8690  148.1957 C.3     1  UNL11111   -0.0284
     18 C         121.9398  150.9816  146.8713 C.ar    1  UNL11111   -0.0514
     19 C         122.0119  149.6618  146.4275 C.ar    1  UNL11111   -0.0708
     20 C         121.2874  150.4058  144.2984 C.ar    1  UNL11111   -0.0127
     21 C         117.8457  152.4975  149.8380 C.3     1  UNL11111    0.0161
     22 C         121.6830  149.3647  145.1142 C.ar    1  UNL11111   -0.0571
     23 C         116.5329  152.9771  150.3851 C.ar    1  UNL11111    0.0248
     24 C         116.2701  153.5519  151.6140 C.ar    1  UNL11111    0.0564
     25 C         114.8879  153.8704  151.7746 C.ar    1  UNL11111   -0.0135
     26 C         114.1405  153.5036  150.6767 C.ar    1  UNL11111   -0.0275
     27 C         116.8949  154.1544  153.7902 C.3     1  UNL11111    0.0304
     28 H         117.5722  153.2595  147.9730 H       1  UNL11111    0.1338
     29 H         122.1270  154.9069  147.8353 H       1  UNL11111    0.0529
     30 H         122.4897  153.2770  148.3422 H       1  UNL11111    0.0529
     31 H         124.6142  154.4513  148.9432 H       1  UNL11111    0.0462
     32 H         124.5546  155.9381  147.9715 H       1  UNL11111    0.0462
     33 H         124.4678  152.2910  145.7968 H       1  UNL11111    0.0462
     34 H         124.5862  152.1675  147.5634 H       1  UNL11111    0.0462
     35 H         121.2924  155.4261  145.4898 H       1  UNL11111    0.0502
     36 H         120.9054  154.1350  144.3642 H       1  UNL11111    0.0502
     37 H         126.8663  154.5052  148.3536 H       1  UNL11111    0.0342
     38 H         126.5711  155.4352  146.8821 H       1  UNL11111    0.0342
     39 H         126.4498  153.5449  145.6255 H       1  UNL11111    0.0342
     40 H         126.8444  152.5647  147.0409 H       1  UNL11111    0.0342
     41 H         119.2364  153.4662  146.1565 H       1  UNL11111    0.0446
     42 H         119.8360  154.7524  147.1898 H       1  UNL11111    0.0446
     43 H         123.3609  153.4907  144.3160 H       1  UNL11111    0.0891
     44 H         123.0862  155.1650  143.8644 H       1  UNL11111    0.0891
     45 H         119.5090  151.8072  147.9364 H       1  UNL11111    0.0605
     46 H         120.3268  152.9910  148.9795 H       1  UNL11111    0.0605
     47 H         122.1817  151.1927  147.9066 H       1  UNL11111    0.1002
     48 H         122.3186  148.8721  147.1077 H       1  UNL11111    0.0906
     49 H         121.0113  150.2326  143.2623 H       1  UNL11111    0.1371
     50 H         118.6062  152.5289  150.6275 H       1  UNL11111    0.0805
     51 H         117.7456  151.4484  149.5311 H       1  UNL11111    0.0805
     52 H         121.7275  148.3494  144.7380 H       1  UNL11111    0.0980
     53 H         114.4452  154.3424  152.6409 H       1  UNL11111    0.1153
     54 H         113.0759  153.6232  150.5313 H       1  UNL11111    0.1125
     55 H         117.7966  154.2322  154.4055 H       1  UNL11111    0.1070
     56 H         116.2392  153.4085  154.2526 H       1  UNL11111    0.1070
     57 H         116.4179  155.1399  153.7726 H       1  UNL11111    0.1070
@<TRIPOS>BOND
     1     1    23   ar
     2     1    26   ar
     3     2     6    1
     4     2    15    1
     5     3    24    1
     6     3    27    1
     7     4    16   ar
     8     4    20   ar
     9     5    17    1
    10     5    21    1
    11     6     8    1
    12     6     9    1
    13     6    10    1
    14     7     8    1
    15     7    11    1
    16     7    14    1
    17     7    16    1
    18     9    12    1
    19    10    13    1
    20    11    15    1
    21    12    13    1
    22    14    17    1
    23    16    18   ar
    24    18    19   ar
    25    19    22   ar
    26    20    22   ar
    27    21    23    1
    28    23    24   ar
    29    24    25   ar
    30    25    26   ar
    31     5    28    1
    32     8    29    1
    33     8    30    1
    34     9    31    1
    35     9    32    1
    36    10    33    1
    37    10    34    1
    38    11    35    1
    39    11    36    1
    40    12    37    1
    41    12    38    1
    42    13    39    1
    43    13    40    1
    44    14    41    1
    45    14    42    1
    46    15    43    1
    47    15    44    1
    48    17    45    1
    49    17    46    1
    50    18    47    1
    51    19    48    1
    52    20    49    1
    53    21    50    1
    54    21    51    1
    55    22    52    1
    56    25    53    1
    57    26    54    1
    58    27    55    1
    59    27    56    1
    60    27    57    1
@<TRIPOS>MOLECULE
66553195
 57 60 0 0 0
SMALL
GASTEIGER

@<TRIPOS>ATOM
      1 S         121.9046  158.7265  146.1277 S.2     1  UNL11111   -0.1269
      2 O         124.2142  154.6747  145.7582 O.3     1  UNL11111   -0.4593
      3 O         119.1701  158.8571  148.8504 O.3     1  UNL11111   -0.5783
      4 N         121.5718  151.4702  147.1853 N.ar    1  UNL11111   -0.3349
      5 N         119.5734  156.3866  145.7392 N.3     1  UNL11111   -0.3404
      6 C         123.9165  154.0439  147.0117 C.3     1  UNL11111    0.0110
      7 C         121.4533  153.7398  146.2124 C.3     1  UNL11111    0.0128
      8 C         122.4194  154.1703  147.3562 C.3     1  UNL11111   -0.0152
      9 C         124.7687  154.7607  148.0744 C.3     1  UNL11111   -0.0341
     10 C         124.5129  152.6323  147.0772 C.3     1  UNL11111   -0.0341
     11 C         121.9348  154.4904  144.9476 C.3     1  UNL11111   -0.0192
     12 C         126.1825  154.2162  147.8795 C.3     1  UNL11111   -0.0539
     13 C         126.0190  152.8598  147.1994 C.3     1  UNL11111   -0.0539
     14 C         119.9646  154.0775  146.5736 C.3     1  UNL11111   -0.0315
     15 C         123.4109  154.2394  144.6670 C.3     1  UNL11111    0.0064
     16 C         121.4508  152.2023  146.0466 C.ar    1  UNL11111   -0.0010
     17 C         119.5827  155.5243  146.9199 C.3     1  UNL11111   -0.0284
     18 C         121.2370  151.5769  144.8161 C.ar    1  UNL11111   -0.0514
     19 C         121.1983  150.1844  144.7486 C.ar    1  UNL11111   -0.0708
     20 C         121.5312  150.1226  147.0936 C.ar    1  UNL11111   -0.0127
     21 C         119.2751  157.7865  146.0728 C.3     1  UNL11111    0.0161
     22 C         121.3531  149.4392  145.9074 C.ar    1  UNL11111   -0.0571
     23 C         120.3691  158.4613  146.8507 C.ar    1  UNL11111    0.0248
     24 C         120.3241  158.9588  148.1399 C.ar    1  UNL11111    0.0564
     25 C         121.5727  159.5208  148.5437 C.ar    1  UNL11111   -0.0135
     26 C         122.5197  159.4499  147.5458 C.ar    1  UNL11111   -0.0275
     27 C         119.2019  159.4691  150.1324 C.3     1  UNL11111    0.0304
     28 H         118.8604  156.0549  145.0923 H       1  UNL11111    0.1338
     29 H         122.2451  155.2347  147.5586 H       1  UNL11111    0.0529
     30 H         122.1937  153.6482  148.2944 H       1  UNL11111    0.0529
     31 H         124.4214  154.5136  149.0854 H       1  UNL11111    0.0462
     32 H         124.7552  155.8502  147.9622 H       1  UNL11111    0.0462
     33 H         124.3028  152.0132  146.2019 H       1  UNL11111    0.0462
     34 H         124.1585  152.1031  147.9699 H       1  UNL11111    0.0462
     35 H         121.8388  155.5683  145.1106 H       1  UNL11111    0.0502
     36 H         121.3296  154.2560  144.0665 H       1  UNL11111    0.0502
     37 H         126.7078  154.1310  148.8363 H       1  UNL11111    0.0342
     38 H         126.7701  154.8862  147.2415 H       1  UNL11111    0.0342
     39 H         126.4827  152.8839  146.2063 H       1  UNL11111    0.0342
     40 H         126.4999  152.0566  147.7666 H       1  UNL11111    0.0342
     41 H         119.6780  153.4723  147.4467 H       1  UNL11111    0.0446
     42 H         119.3091  153.7334  145.7598 H       1  UNL11111    0.0446
     43 H         123.6245  153.1929  144.4320 H       1  UNL11111    0.0891
     44 H         123.7149  154.8241  143.7922 H       1  UNL11111    0.0891
     45 H         118.5727  155.5113  147.3495 H       1  UNL11111    0.0605
     46 H         120.2459  155.9042  147.7011 H       1  UNL11111    0.0605
     47 H         121.0885  152.1424  143.9039 H       1  UNL11111    0.1002
     48 H         121.0405  149.6882  143.7952 H       1  UNL11111    0.0906
     49 H         121.6487  149.5925  148.0341 H       1  UNL11111    0.1371
     50 H         118.3173  157.8485  146.6033 H       1  UNL11111    0.0805
     51 H         119.1321  158.3357  145.1336 H       1  UNL11111    0.0805
     52 H         121.3270  148.3561  145.8882 H       1  UNL11111    0.0980
     53 H         121.7875  159.9564  149.5099 H       1  UNL11111    0.1153
     54 H         123.5445  159.7926  147.5785 H       1  UNL11111    0.1125
     55 H         118.2123  159.3512  150.5844 H       1  UNL11111    0.1070
     56 H         119.4066  160.5425  150.0551 H       1  UNL11111    0.1070
     57 H         119.9285  158.9767  150.7873 H       1  UNL11111    0.1070
@<TRIPOS>BOND
     1     1    23   ar
     2     1    26   ar
     3     2     6    1
     4     2    15    1
     5     3    24    1
     6     3    27    1
     7     4    16   ar
     8     4    20   ar
     9     5    17    1
    10     5    21    1
    11     6     8    1
    12     6     9    1
    13     6    10    1
    14     7     8    1
    15     7    11    1
    16     7    14    1
    17     7    16    1
    18     9    12    1
    19    10    13    1
    20    11    15    1
    21    12    13    1
    22    14    17    1
    23    16    18   ar
    24    18    19   ar
    25    19    22   ar
    26    20    22   ar
    27    21    23    1
    28    23    24   ar
    29    24    25   ar
    30    25    26   ar
    31     5    28    1
    32     8    29    1
    33     8    30    1
    34     9    31    1
    35     9    32    1
    36    10    33    1
    37    10    34    1
    38    11    35    1
    39    11    36    1
    40    12    37    1
    41    12    38    1
    42    13    39    1
    43    13    40    1
    44    14    41    1
    45    14    42    1
    46    15    43    1
    47    15    44    1
    48    17    45    1
    49    17    46    1
    50    18    47    1
    51    19    48    1
    52    20    49    1
    53    21    50    1
    54    21    51    1
    55    22    52    1
    56    25    53    1
    57    26    54    1
    58    27    55    1
    59    27    56    1
    60    27    57    1
@<TRIPOS>MOLECULE
66553195
 57 60 0 0 0
SMALL
GASTEIGER

@<TRIPOS>ATOM
      1 S         116.4415  150.5378  148.8854 S.2     1  UNL11111   -0.1269
      2 O         123.8624  154.9177  145.8760 O.3     1  UNL11111   -0.4593
      3 O         119.1662  150.9724  151.5866 O.3     1  UNL11111   -0.5783
      4 N         121.2866  151.6525  144.8521 N.ar    1  UNL11111   -0.3349
      5 N         118.0779  153.3956  148.5757 N.3     1  UNL11111   -0.3404
      6 C         123.8196  154.1496  147.0830 C.3     1  UNL11111    0.0110
      7 C         121.3673  153.4804  146.5083 C.3     1  UNL11111    0.0128
      8 C         122.3716  153.9836  147.5825 C.3     1  UNL11111   -0.0152
      9 C         124.6602  154.9139  148.1208 C.3     1  UNL11111   -0.0341
     10 C         124.6362  152.8569  146.9557 C.3     1  UNL11111   -0.0341
     11 C         121.5878  154.3801  145.2545 C.3     1  UNL11111   -0.0192
     12 C         126.1122  154.6298  147.7387 C.3     1  UNL11111   -0.0539
     13 C         126.0901  153.3259  146.9457 C.3     1  UNL11111   -0.0539
     14 C         119.8890  153.7174  146.9646 C.3     1  UNL11111   -0.0315
     15 C         123.0449  154.4127  144.8239 C.3     1  UNL11111    0.0064
     16 C         121.5252  151.9933  146.1442 C.ar    1  UNL11111   -0.0010
     17 C         119.4819  153.0787  148.2994 C.3     1  UNL11111   -0.0284
     18 C         121.8374  151.0157  147.0917 C.ar    1  UNL11111   -0.0514
     19 C         121.9300  149.6801  146.7021 C.ar    1  UNL11111   -0.0708
     20 C         121.3824  150.3520  144.4976 C.ar    1  UNL11111   -0.0127
     21 C         117.6287  152.8650  149.8693 C.3     1  UNL11111    0.0161
     22 C         121.7012  149.3381  145.3784 C.ar    1  UNL11111   -0.0571
     23 C         117.5482  151.3645  149.9068 C.ar    1  UNL11111    0.0248
     24 C         118.2553  150.4848  150.7049 C.ar    1  UNL11111    0.0564
     25 C         117.9053  149.1252  150.4480 C.ar    1  UNL11111   -0.0135
     26 C         116.9335  149.0144  149.4781 C.ar    1  UNL11111   -0.0275
     27 C         119.6834  150.0151  152.5008 C.3     1  UNL11111    0.0304
     28 H         117.4908  152.9929  147.8446 H       1  UNL11111    0.1338
     29 H         122.0258  154.9780  147.9027 H       1  UNL11111    0.0529
     30 H         122.3570  153.3650  148.4861 H       1  UNL11111    0.0529
     31 H         124.4717  154.5344  149.1328 H       1  UNL11111    0.0462
     32 H         124.4626  155.9912  148.1146 H       1  UNL11111    0.0462
     33 H         124.4271  152.2765  146.0541 H       1  UNL11111    0.0462
     34 H         124.4757  152.2104  147.8269 H       1  UNL11111    0.0462
     35 H         121.2939  155.4094  145.5040 H       1  UNL11111    0.0502
     36 H         120.9536  154.0762  144.4133 H       1  UNL11111    0.0502
     37 H         126.7459  154.5538  148.6283 H       1  UNL11111    0.0342
     38 H         126.5143  155.4386  147.1180 H       1  UNL11111    0.0342
     39 H         126.4238  153.5105  145.9179 H       1  UNL11111    0.0342
     40 H         126.7568  152.5726  147.3771 H       1  UNL11111    0.0342
     41 H         119.2103  153.3596  146.1767 H       1  UNL11111    0.0446
     42 H         119.7136  154.7998  147.0457 H       1  UNL11111    0.0446
     43 H         123.4090  153.4373  144.4893 H       1  UNL11111    0.0891
     44 H         123.1556  155.0964  143.9755 H       1  UNL11111    0.0891
     45 H         119.6132  151.9953  148.2523 H       1  UNL11111    0.0605
     46 H         120.1098  153.4711  149.1060 H       1  UNL11111    0.0605
     47 H         121.9987  151.2627  148.1350 H       1  UNL11111    0.1002
     48 H         122.1722  148.9135  147.4325 H       1  UNL11111    0.0906
     49 H         121.1857  150.1437  143.4499 H       1  UNL11111    0.1371
     50 H         116.6317  153.2742  150.0753 H       1  UNL11111    0.0805
     51 H         118.2734  153.2460  150.6702 H       1  UNL11111    0.0805
     52 H         121.7626  148.3095  145.0433 H       1  UNL11111    0.0980
     53 H         118.3320  148.2597  150.9367 H       1  UNL11111    0.1153
     54 H         116.4846  148.1102  149.0906 H       1  UNL11111    0.1125
     55 H         120.3376  150.5414  153.2026 H       1  UNL11111    0.1070
     56 H         120.2868  149.2624  151.9825 H       1  UNL11111    0.1070
     57 H         118.8821  149.5444  153.0810 H       1  UNL11111    0.1070
@<TRIPOS>BOND
     1     1    23   ar
     2     1    26   ar
     3     2     6    1
     4     2    15    1
     5     3    24    1
     6     3    27    1
     7     4    16   ar
     8     4    20   ar
     9     5    17    1
    10     5    21    1
    11     6     8    1
    12     6     9    1
    13     6    10    1
    14     7     8    1
    15     7    11    1
    16     7    14    1
    17     7    16    1
    18     9    12    1
    19    10    13    1
    20    11    15    1
    21    12    13    1
    22    14    17    1
    23    16    18   ar
    24    18    19   ar
    25    19    22   ar
    26    20    22   ar
    27    21    23    1
    28    23    24   ar
    29    24    25   ar
    30    25    26   ar
    31     5    28    1
    32     8    29    1
    33     8    30    1
    34     9    31    1
    35     9    32    1
    36    10    33    1
    37    10    34    1
    38    11    35    1
    39    11    36    1
    40    12    37    1
    41    12    38    1
    42    13    39    1
    43    13    40    1
    44    14    41    1
    45    14    42    1
    46    15    43    1
    47    15    44    1
    48    17    45    1
    49    17    46    1
    50    18    47    1
    51    19    48    1
    52    20    49    1
    53    21    50    1
    54    21    51    1
    55    22    52    1
    56    25    53    1
    57    26    54    1
    58    27    55    1
    59    27    56    1
    60    27    57    1
@<TRIPOS>MOLECULE
66553195
 57 60 0 0 0
SMALL
GASTEIGER

@<TRIPOS>ATOM
      1 S         119.1604  159.2499  146.3370 S.2     1  UNL11111   -0.1269
      2 O         124.1575  154.6631  145.7400 O.3     1  UNL11111   -0.4593
      3 O         115.8022  157.3549  146.1660 O.3     1  UNL11111   -0.5783
      4 N         121.3547  151.7794  145.0098 N.ar    1  UNL11111   -0.3349
      5 N         118.4513  155.8774  147.7745 N.3     1  UNL11111   -0.3404
      6 C         124.0136  153.9743  146.9869 C.3     1  UNL11111    0.0110
      7 C         121.4669  153.7560  146.5092 C.3     1  UNL11111    0.0128
      8 C         122.5806  154.1292  147.5272 C.3     1  UNL11111   -0.0152
      9 C         125.0224  154.6090  147.9601 C.3     1  UNL11111   -0.0341
     10 C         124.5526  152.5397  146.9152 C.3     1  UNL11111   -0.0341
     11 C         121.7979  154.5037  145.1894 C.3     1  UNL11111   -0.0192
     12 C         126.3755  154.0261  147.5577 C.3     1  UNL11111   -0.0539
     13 C         126.0706  152.7045  146.8582 C.3     1  UNL11111   -0.0539
     14 C         120.0531  154.1750  147.0395 C.3     1  UNL11111   -0.0315
     15 C         123.2317  154.2629  144.7316 C.3     1  UNL11111    0.0064
     16 C         121.3852  152.2287  146.2891 C.ar    1  UNL11111   -0.0010
     17 C         119.7889  155.6793  147.2055 C.3     1  UNL11111   -0.0284
     18 C         121.2898  151.3402  147.3649 C.ar    1  UNL11111   -0.0514
     19 C         121.1938  149.9716  147.1207 C.ar    1  UNL11111   -0.0708
     20 C         121.2606  150.4476  144.7989 C.ar    1  UNL11111   -0.0127
     21 C         118.1630  157.2908  148.0603 C.3     1  UNL11111    0.0161
     22 C         121.1820  149.5124  145.8124 C.ar    1  UNL11111   -0.0571
     23 C         117.9646  158.1157  146.8250 C.ar    1  UNL11111    0.0248
     24 C         116.8924  158.1292  145.9573 C.ar    1  UNL11111    0.0564
     25 C         117.0401  159.0685  144.9003 C.ar    1  UNL11111   -0.0135
     26 C         118.2405  159.7380  144.9796 C.ar    1  UNL11111   -0.0275
     27 C         115.7106  156.3217  145.1886 C.3     1  UNL11111    0.0304
     28 H         118.3751  155.3589  148.6476 H       1  UNL11111    0.1338
     29 H         122.4607  155.1899  147.7821 H       1  UNL11111    0.0529
     30 H         122.4682  153.5856  148.4723 H       1  UNL11111    0.0529
     31 H         124.7991  154.3240  148.9958 H       1  UNL11111    0.0462
     32 H         125.0389  155.7024  147.8995 H       1  UNL11111    0.0462
     33 H         124.2109  151.9687  146.0494 H       1  UNL11111    0.0462
     34 H         124.2857  151.9815  147.8210 H       1  UNL11111    0.0462
     35 H         121.7061  155.5839  145.3528 H       1  UNL11111    0.0502
     36 H         121.0945  154.2453  144.3891 H       1  UNL11111    0.0502
     37 H         127.0207  153.8855  148.4309 H       1  UNL11111    0.0342
     38 H         126.8973  154.7014  146.8700 H       1  UNL11111    0.0342
     39 H         126.4107  152.7484  145.8169 H       1  UNL11111    0.0342
     40 H         126.5815  151.8620  147.3350 H       1  UNL11111    0.0342
     41 H         119.8800  153.6881  148.0098 H       1  UNL11111    0.0446
     42 H         119.2872  153.7720  146.3600 H       1  UNL11111    0.0446
     43 H         123.4208  153.2289  144.4327 H       1  UNL11111    0.0891
     44 H         123.4338  154.8803  143.8496 H       1  UNL11111    0.0891
     45 H         120.5375  156.1288  147.8641 H       1  UNL11111    0.0605
     46 H         119.8407  156.1647  146.2276 H       1  UNL11111    0.0605
     47 H         121.2803  151.6934  148.3904 H       1  UNL11111    0.1002
     48 H         121.1227  149.2716  147.9483 H       1  UNL11111    0.0906
     49 H         121.2484  150.1454  143.7557 H       1  UNL11111    0.1371
     50 H         118.9384  157.7127  148.7119 H       1  UNL11111    0.0805
     51 H         117.2336  157.3296  148.6426 H       1  UNL11111    0.0805
     52 H         121.1066  148.4549  145.5877 H       1  UNL11111    0.0980
     53 H         116.3039  159.2499  144.1284 H       1  UNL11111    0.1153
     54 H         118.6186  160.5013  144.3138 H       1  UNL11111    0.1125
     55 H         114.8854  155.6620  145.4727 H       1  UNL11111    0.1070
     56 H         116.6279  155.7231  145.1533 H       1  UNL11111    0.1070
     57 H         115.4881  156.7358  144.1994 H       1  UNL11111    0.1070
@<TRIPOS>BOND
     1     1    23   ar
     2     1    26   ar
     3     2     6    1
     4     2    15    1
     5     3    24    1
     6     3    27    1
     7     4    16   ar
     8     4    20   ar
     9     5    17    1
    10     5    21    1
    11     6     8    1
    12     6     9    1
    13     6    10    1
    14     7     8    1
    15     7    11    1
    16     7    14    1
    17     7    16    1
    18     9    12    1
    19    10    13    1
    20    11    15    1
    21    12    13    1
    22    14    17    1
    23    16    18   ar
    24    18    19   ar
    25    19    22   ar
    26    20    22   ar
    27    21    23    1
    28    23    24   ar
    29    24    25   ar
    30    25    26   ar
    31     5    28    1
    32     8    29    1
    33     8    30    1
    34     9    31    1
    35     9    32    1
    36    10    33    1
    37    10    34    1
    38    11    35    1
    39    11    36    1
    40    12    37    1
    41    12    38    1
    42    13    39    1
    43    13    40    1
    44    14    41    1
    45    14    42    1
    46    15    43    1
    47    15    44    1
    48    17    45    1
    49    17    46    1
    50    18    47    1
    51    19    48    1
    52    20    49    1
    53    21    50    1
    54    21    51    1
    55    22    52    1
    56    25    53    1
    57    26    54    1
    58    27    55    1
    59    27    56    1
    60    27    57    1
@<TRIPOS>MOLECULE
66553195
 57 60 0 0 0
SMALL
GASTEIGER

@<TRIPOS>ATOM
      1 S         117.7067  158.6369  148.2954 S.2     1  UNL11111   -0.1269
      2 O         124.2241  154.6834  145.5886 O.3     1  UNL11111   -0.4593
      3 O         116.6248  157.2194  144.8730 O.3     1  UNL11111   -0.5783
      4 N         121.4734  151.7062  144.8844 N.ar    1  UNL11111   -0.3349
      5 N         119.5432  156.3263  145.8987 N.3     1  UNL11111   -0.3404
      6 C         124.0637  154.0530  146.8640 C.3     1  UNL11111    0.0110
      7 C         121.5361  153.7269  146.3326 C.3     1  UNL11111    0.0128
      8 C         122.6109  154.1802  147.3603 C.3     1  UNL11111   -0.0152
      9 C         125.0212  154.7699  147.8322 C.3     1  UNL11111   -0.0341
     10 C         124.6570  152.6383  146.8749 C.3     1  UNL11111   -0.0341
     11 C         121.8781  154.4442  145.0013 C.3     1  UNL11111   -0.0192
     12 C         126.4056  154.2213  147.4935 C.3     1  UNL11111   -0.0539
     13 C         126.1692  152.8573  146.8512 C.3     1  UNL11111   -0.0539
     14 C         120.0888  154.0813  146.8226 C.3     1  UNL11111   -0.0315
     15 C         123.3261  154.2201  144.5812 C.3     1  UNL11111    0.0064
     16 C         121.5237  152.1894  146.1511 C.ar    1  UNL11111   -0.0010
     17 C         119.7240  155.5455  147.1163 C.3     1  UNL11111   -0.0284
     18 C         121.4980  151.3236  147.2494 C.ar    1  UNL11111   -0.0514
     19 C         121.4586  149.9461  147.0407 C.ar    1  UNL11111   -0.0708
     20 C         121.4362  150.3668  144.7077 C.ar    1  UNL11111   -0.0127
     21 C         119.2603  157.7412  146.1615 C.3     1  UNL11111    0.0161
     22 C         121.4311  149.4543  145.7446 C.ar    1  UNL11111   -0.0571
     23 C         117.8863  157.9742  146.7228 C.ar    1  UNL11111    0.0248
     24 C         116.6608  157.7425  146.1261 C.ar    1  UNL11111    0.0564
     25 C         115.5726  158.1039  146.9756 C.ar    1  UNL11111   -0.0135
     26 C         116.0034  158.6031  148.1851 C.ar    1  UNL11111   -0.0275
     27 C         115.3221  157.0491  144.3319 C.3     1  UNL11111    0.0304
     28 H         118.7722  155.9464  145.3467 H       1  UNL11111    0.1338
     29 H         122.4507  155.2471  147.5616 H       1  UNL11111    0.0529
     30 H         122.4906  153.6772  148.3264 H       1  UNL11111    0.0529
     31 H         124.7796  154.5252  148.8740 H       1  UNL11111    0.0462
     32 H         124.9990  155.8592  147.7200 H       1  UNL11111    0.0462
     33 H         124.3614  152.0167  146.0268 H       1  UNL11111    0.0462
     34 H         124.3855  152.1126  147.7984 H       1  UNL11111    0.0462
     35 H         121.7693  155.5254  145.1354 H       1  UNL11111    0.0502
     36 H         121.1978  154.1506  144.1935 H       1  UNL11111    0.0502
     37 H         127.0315  154.1474  148.3886 H       1  UNL11111    0.0342
     38 H         126.9204  154.8829  146.7872 H       1  UNL11111    0.0342
     39 H         126.5377  152.8641  145.8187 H       1  UNL11111    0.0342
     40 H         126.6962  152.0584  147.3824 H       1  UNL11111    0.0342
     41 H         119.8977  153.5339  147.7569 H       1  UNL11111    0.0446
     42 H         119.3583  153.6817  146.1032 H       1  UNL11111    0.0446
     43 H         123.5458  153.1792  144.3304 H       1  UNL11111    0.0891
     44 H         123.5313  154.8050  143.6781 H       1  UNL11111    0.0891
     45 H         118.7846  155.5352  147.6825 H       1  UNL11111    0.0605
     46 H         120.4761  156.0033  147.7654 H       1  UNL11111    0.0605
     47 H         121.5003  151.7005  148.2664 H       1  UNL11111    0.1002
     48 H         121.4443  149.2648  147.8865 H       1  UNL11111    0.0906
     49 H         121.4080  150.0390  143.6726 H       1  UNL11111    0.1371
     50 H         119.3337  158.2795  145.2083 H       1  UNL11111    0.0805
     51 H         120.0429  158.1679  146.8008 H       1  UNL11111    0.0805
     52 H         121.3996  148.3893  145.5471 H       1  UNL11111    0.0980
     53 H         114.5227  158.0114  146.7318 H       1  UNL11111    0.1153
     54 H         115.3983  158.9523  149.0104 H       1  UNL11111    0.1125
     55 H         115.4294  156.6377  143.3236 H       1  UNL11111    0.1070
     56 H         114.7997  158.0081  144.2473 H       1  UNL11111    0.1070
     57 H         114.7390  156.3350  144.9231 H       1  UNL11111    0.1070
@<TRIPOS>BOND
     1     1    23   ar
     2     1    26   ar
     3     2     6    1
     4     2    15    1
     5     3    24    1
     6     3    27    1
     7     4    16   ar
     8     4    20   ar
     9     5    17    1
    10     5    21    1
    11     6     8    1
    12     6     9    1
    13     6    10    1
    14     7     8    1
    15     7    11    1
    16     7    14    1
    17     7    16    1
    18     9    12    1
    19    10    13    1
    20    11    15    1
    21    12    13    1
    22    14    17    1
    23    16    18   ar
    24    18    19   ar
    25    19    22   ar
    26    20    22   ar
    27    21    23    1
    28    23    24   ar
    29    24    25   ar
    30    25    26   ar
    31     5    28    1
    32     8    29    1
    33     8    30    1
    34     9    31    1
    35     9    32    1
    36    10    33    1
    37    10    34    1
    38    11    35    1
    39    11    36    1
    40    12    37    1
    41    12    38    1
    42    13    39    1
    43    13    40    1
    44    14    41    1
    45    14    42    1
    46    15    43    1
    47    15    44    1
    48    17    45    1
    49    17    46    1
    50    18    47    1
    51    19    48    1
    52    20    49    1
    53    21    50    1
    54    21    51    1
    55    22    52    1
    56    25    53    1
    57    26    54    1
    58    27    55    1
    59    27    56    1
    60    27    57    1
@<TRIPOS>MOLECULE
66553195
 57 60 0 0 0
SMALL
GASTEIGER

@<TRIPOS>ATOM
      1 S         116.5002  157.3251  150.0745 S.2     1  UNL11111   -0.1269
      2 O         124.0552  154.8104  145.6116 O.3     1  UNL11111   -0.4593
      3 O         115.0319  156.8256  146.5384 O.3     1  UNL11111   -0.5783
      4 N         121.5162  151.6813  144.9980 N.ar    1  UNL11111   -0.3349
      5 N         118.3110  155.6090  147.6893 N.3     1  UNL11111   -0.3404
      6 C         123.9865  154.1398  146.8749 C.3     1  UNL11111    0.0110
      7 C         121.4612  153.7007  146.4419 C.3     1  UNL11111    0.0128
      8 C         122.5536  154.1889  147.4342 C.3     1  UNL11111   -0.0152
      9 C         124.9544  154.8752  147.8182 C.3     1  UNL11111   -0.0341
     10 C         124.6388  152.7518  146.8251 C.3     1  UNL11111   -0.0341
     11 C         121.7115  154.4374  145.0987 C.3     1  UNL11111   -0.0192
     12 C         126.3445  154.3932  147.4080 C.3     1  UNL11111   -0.0539
     13 C         126.1372  153.0373  146.7390 C.3     1  UNL11111   -0.0539
     14 C         120.0302  154.0197  146.9934 C.3     1  UNL11111   -0.0315
     15 C         123.1549  154.3084  144.6259 C.3     1  UNL11111    0.0064
     16 C         121.5015  152.1667  146.2644 C.ar    1  UNL11111   -0.0010
     17 C         119.6098  155.4954  147.0245 C.3     1  UNL11111   -0.0284
     18 C         121.4664  151.3041  147.3644 C.ar    1  UNL11111   -0.0514
     19 C         121.4743  149.9259  147.1585 C.ar    1  UNL11111   -0.0708
     20 C         121.5219  150.3410  144.8244 C.ar    1  UNL11111   -0.0127
     21 C         117.8046  156.9833  147.6371 C.3     1  UNL11111    0.0161
     22 C         121.5053  149.4310  145.8635 C.ar    1  UNL11111   -0.0571
     23 C         116.5012  157.0830  148.3742 C.ar    1  UNL11111    0.0248
     24 C         115.2162  157.0031  147.8719 C.ar    1  UNL11111    0.0564
     25 C         114.2298  157.1487  148.8932 C.ar    1  UNL11111   -0.0135
     26 C         114.7938  157.3276  150.1371 C.ar    1  UNL11111   -0.0275
     27 C         113.7142  156.4481  146.1655 C.3     1  UNL11111    0.0304
     28 H         118.3906  155.3293  148.6657 H       1  UNL11111    0.1338
     29 H         122.3455  155.2406  147.6706 H       1  UNL11111    0.0529
     30 H         122.5011  153.6573  148.3914 H       1  UNL11111    0.0529
     31 H         124.7689  154.5969  148.8632 H       1  UNL11111    0.0462
     32 H         124.8823  155.9648  147.7338 H       1  UNL11111    0.0462
     33 H         124.3319  152.1351  145.9778 H       1  UNL11111    0.0462
     34 H         124.4312  152.1947  147.7469 H       1  UNL11111    0.0462
     35 H         121.5309  155.5103  145.2361 H       1  UNL11111    0.0502
     36 H         121.0225  154.0991  144.3159 H       1  UNL11111    0.0502
     37 H         127.0096  154.3221  148.2746 H       1  UNL11111    0.0342
     38 H         126.8024  155.0933  146.6998 H       1  UNL11111    0.0342
     39 H         126.4562  153.0875  145.6914 H       1  UNL11111    0.0342
     40 H         126.7222  152.2486  147.2227 H       1  UNL11111    0.0342
     41 H         119.9451  153.6120  148.0109 H       1  UNL11111    0.0446
     42 H         119.2870  153.4771  146.3899 H       1  UNL11111    0.0446
     43 H         123.4282  153.2878  144.3472 H       1  UNL11111    0.0891
     44 H         123.2924  154.9197  143.7274 H       1  UNL11111    0.0891
     45 H         120.3487  156.1025  147.5559 H       1  UNL11111    0.0605
     46 H         119.5207  155.8721  146.0002 H       1  UNL11111    0.0605
     47 H         121.4216  151.6847  148.3793 H       1  UNL11111    0.1002
     48 H         121.4482  149.2460  148.0052 H       1  UNL11111    0.0906
     49 H         121.5386  150.0099  143.7901 H       1  UNL11111    0.1371
     50 H         117.6578  157.2883  146.5939 H       1  UNL11111    0.0805
     51 H         118.5329  157.6780  148.0747 H       1  UNL11111    0.0805
     52 H         121.5085  148.3651  145.6682 H       1  UNL11111    0.0980
     53 H         113.1589  157.1309  148.7417 H       1  UNL11111    0.1153
     54 H         114.2844  157.4631  151.0811 H       1  UNL11111    0.1125
     55 H         113.7187  156.2297  145.0932 H       1  UNL11111    0.1070
     56 H         113.0079  157.2673  146.3358 H       1  UNL11111    0.1070
     57 H         113.3951  155.5403  146.6895 H       1  UNL11111    0.1070
@<TRIPOS>BOND
     1     1    23   ar
     2     1    26   ar
     3     2     6    1
     4     2    15    1
     5     3    24    1
     6     3    27    1
     7     4    16   ar
     8     4    20   ar
     9     5    17    1
    10     5    21    1
    11     6     8    1
    12     6     9    1
    13     6    10    1
    14     7     8    1
    15     7    11    1
    16     7    14    1
    17     7    16    1
    18     9    12    1
    19    10    13    1
    20    11    15    1
    21    12    13    1
    22    14    17    1
    23    16    18   ar
    24    18    19   ar
    25    19    22   ar
    26    20    22   ar
    27    21    23    1
    28    23    24   ar
    29    24    25   ar
    30    25    26   ar
    31     5    28    1
    32     8    29    1
    33     8    30    1
    34     9    31    1
    35     9    32    1
    36    10    33    1
    37    10    34    1
    38    11    35    1
    39    11    36    1
    40    12    37    1
    41    12    38    1
    42    13    39    1
    43    13    40    1
    44    14    41    1
    45    14    42    1
    46    15    43    1
    47    15    44    1
    48    17    45    1
    49    17    46    1
    50    18    47    1
    51    19    48    1
    52    20    49    1
    53    21    50    1
    54    21    51    1
    55    22    52    1
    56    25    53    1
    57    26    54    1
    58    27    55    1
    59    27    56    1
    60    27    57    1
@<TRIPOS>MOLECULE
66553195
 57 60 0 0 0
SMALL
GASTEIGER

@<TRIPOS>ATOM
      1 S         116.4299  155.5861  151.1787 S.2     1  UNL11111   -0.1269
      2 O         123.8247  154.8115  145.5560 O.3     1  UNL11111   -0.4593
      3 O         115.0225  154.1427  147.8860 O.3     1  UNL11111   -0.5783
      4 N         121.2108  151.4862  145.0905 N.ar    1  UNL11111   -0.3349
      5 N         118.3444  153.5415  149.0336 N.3     1  UNL11111   -0.3404
      6 C         123.8898  154.1666  146.8318 C.3     1  UNL11111    0.0110
      7 C         121.3948  153.4685  146.5492 C.3     1  UNL11111    0.0128
      8 C         122.4918  154.0703  147.4707 C.3     1  UNL11111   -0.0152
      9 C         124.8214  155.0193  147.7109 C.3     1  UNL11111   -0.0341
     10 C         124.6865  152.8571  146.7633 C.3     1  UNL11111   -0.0341
     11 C         121.5031  154.2319  145.1935 C.3     1  UNL11111   -0.0192
     12 C         126.2338  154.6772  147.2389 C.3     1  UNL11111   -0.0539
     13 C         126.1357  153.3038  146.5807 C.3     1  UNL11111   -0.0539
     14 C         119.9582  153.7538  147.1093 C.3     1  UNL11111   -0.0315
     15 C         122.9174  154.2107  144.6353 C.3     1  UNL11111    0.0064
     16 C         121.5267  151.9506  146.3265 C.ar    1  UNL11111   -0.0010
     17 C         119.7385  153.4383  148.5975 C.3     1  UNL11111   -0.0284
     18 C         121.9014  151.0691  147.3425 C.ar    1  UNL11111   -0.0514
     19 C         121.9714  149.7013  147.0795 C.ar    1  UNL11111   -0.0708
     20 C         121.2837  150.1569  144.8593 C.ar    1  UNL11111   -0.0127
     21 C         117.7629  154.8722  148.8387 C.3     1  UNL11111    0.0161
     22 C         121.6585  149.2324  145.8131 C.ar    1  UNL11111   -0.0571
     23 C         116.4563  154.9788  149.5725 C.ar    1  UNL11111    0.0248
     24 C         115.1899  154.6354  149.1399 C.ar    1  UNL11111    0.0564
     25 C         114.1942  154.8915  150.1297 C.ar    1  UNL11111   -0.0135
     26 C         114.7350  155.4085  151.2864 C.ar    1  UNL11111   -0.0275
     27 C         113.8014  153.4450  147.6844 C.3     1  UNL11111    0.0304
     28 H         118.2888  153.3115  150.0253 H       1  UNL11111    0.1338
     29 H         122.1773  155.0967  147.7130 H       1  UNL11111    0.0529
     30 H         122.5564  153.5481  148.4315 H       1  UNL11111    0.0529
     31 H         124.7185  154.7467  148.7687 H       1  UNL11111    0.0462
     32 H         124.6303  156.0933  147.6124 H       1  UNL11111    0.0462
     33 H         124.3972  152.1931  145.9456 H       1  UNL11111    0.0462
     34 H         124.6000  152.3020  147.7052 H       1  UNL11111    0.0462
     35 H         121.2329  155.2843  145.3596 H       1  UNL11111    0.0502
     36 H         120.7965  153.8486  144.4478 H       1  UNL11111    0.0502
     37 H         126.9390  154.6766  148.0765 H       1  UNL11111    0.0342
     38 H         126.5890  155.4165  146.5120 H       1  UNL11111    0.0342
     39 H         126.3779  153.3848  145.5146 H       1  UNL11111    0.0342
     40 H         126.8346  152.5867  147.0227 H       1  UNL11111    0.0342
     41 H         119.2185  153.2056  146.5091 H       1  UNL11111    0.0446
     42 H         119.7390  154.8198  146.9628 H       1  UNL11111    0.0446
     43 H         123.2527  153.2048  144.3678 H       1  UNL11111    0.0891
     44 H         122.9518  154.8066  143.7170 H       1  UNL11111    0.0891
     45 H         120.0511  152.4137  148.8113 H       1  UNL11111    0.0605
     46 H         120.3571  154.0949  149.2199 H       1  UNL11111    0.0605
     47 H         122.1367  151.4157  148.3419 H       1  UNL11111    0.1002
     48 H         122.2623  149.0081  147.8636 H       1  UNL11111    0.0906
     49 H         121.0207  149.8486  143.8517 H       1  UNL11111    0.1371
     50 H         117.5851  155.0556  147.7727 H       1  UNL11111    0.0805
     51 H         118.4510  155.6504  149.1924 H       1  UNL11111    0.0805
     52 H         121.6989  148.1755  145.5773 H       1  UNL11111    0.0980
     53 H         113.1329  154.7182  150.0142 H       1  UNL11111    0.1153
     54 H         114.2146  155.6935  152.1902 H       1  UNL11111    0.1125
     55 H         113.8419  152.9760  146.6966 H       1  UNL11111    0.1070
     56 H         112.9504  154.1338  147.6922 H       1  UNL11111    0.1070
     57 H         113.6673  152.6495  148.4261 H       1  UNL11111    0.1070
@<TRIPOS>BOND
     1     1    23   ar
     2     1    26   ar
     3     2     6    1
     4     2    15    1
     5     3    24    1
     6     3    27    1
     7     4    16   ar
     8     4    20   ar
     9     5    17    1
    10     5    21    1
    11     6     8    1
    12     6     9    1
    13     6    10    1
    14     7     8    1
    15     7    11    1
    16     7    14    1
    17     7    16    1
    18     9    12    1
    19    10    13    1
    20    11    15    1
    21    12    13    1
    22    14    17    1
    23    16    18   ar
    24    18    19   ar
    25    19    22   ar
    26    20    22   ar
    27    21    23    1
    28    23    24   ar
    29    24    25   ar
    30    25    26   ar
    31     5    28    1
    32     8    29    1
    33     8    30    1
    34     9    31    1
    35     9    32    1
    36    10    33    1
    37    10    34    1
    38    11    35    1
    39    11    36    1
    40    12    37    1
    41    12    38    1
    42    13    39    1
    43    13    40    1
    44    14    41    1
    45    14    42    1
    46    15    43    1
    47    15    44    1
    48    17    45    1
    49    17    46    1
    50    18    47    1
    51    19    48    1
    52    20    49    1
    53    21    50    1
    54    21    51    1
    55    22    52    1
    56    25    53    1
    57    26    54    1
    58    27    55    1
    59    27    56    1
    60    27    57    1
@<TRIPOS>MOLECULE
66553195
 57 60 0 0 0
SMALL
GASTEIGER

@<TRIPOS>ATOM
      1 S         118.6827  148.5883  145.2027 S.2     1  UNL11111   -0.1269
      2 O         123.8004  155.1437  145.8799 O.3     1  UNL11111   -0.4593
      3 O         115.4887  149.9588  143.5299 O.3     1  UNL11111   -0.5783
      4 N         122.1989  151.6254  144.7835 N.ar    1  UNL11111   -0.3349
      5 N         118.7043  151.6431  145.7994 N.3     1  UNL11111   -0.3404
      6 C         123.8092  154.3030  147.0381 C.3     1  UNL11111    0.0110
      7 C         121.4603  153.4040  146.3431 C.3     1  UNL11111    0.0128
      8 C         122.3710  153.9806  147.4709 C.3     1  UNL11111   -0.0152
      9 C         124.5396  155.0862  148.1428 C.3     1  UNL11111   -0.0341
     10 C         124.7469  153.0991  146.8777 C.3     1  UNL11111   -0.0341
     11 C         121.6450  154.3209  145.1007 C.3     1  UNL11111   -0.0192
     12 C         126.0210  154.9671  147.7907 C.3     1  UNL11111   -0.0539
     13 C         126.1516  153.6950  146.9578 C.3     1  UNL11111   -0.0539
     14 C         119.9729  153.5100  146.8380 C.3     1  UNL11111   -0.0315
     15 C         123.1062  154.5937  144.7647 C.3     1  UNL11111    0.0064
     16 C         121.8259  151.9414  146.0497 C.ar    1  UNL11111   -0.0010
     17 C         118.8729  153.0907  145.8491 C.3     1  UNL11111   -0.0284
     18 C         121.7888  150.9704  147.0554 C.ar    1  UNL11111   -0.0514
     19 C         122.1430  149.6569  146.7565 C.ar    1  UNL11111   -0.0708
     20 C         122.5225  150.3406  144.5173 C.ar    1  UNL11111   -0.0127
     21 C         117.9132  151.2402  144.6335 C.3     1  UNL11111    0.0161
     22 C         122.5173  149.3319  145.4617 C.ar    1  UNL11111   -0.0571
     23 C         117.5839  149.7692  144.6118 C.ar    1  UNL11111    0.0248
     24 C         116.4516  149.1746  144.0815 C.ar    1  UNL11111    0.0564
     25 C         116.4743  147.7531  144.2078 C.ar    1  UNL11111   -0.0135
     26 C         117.6308  147.3059  144.8056 C.ar    1  UNL11111   -0.0275
     27 C         114.4628  149.2525  142.8455 C.3     1  UNL11111    0.0304
     28 H         118.2445  151.3096  146.6439 H       1  UNL11111    0.1338
     29 H         121.9203  154.9280  147.8024 H       1  UNL11111    0.0529
     30 H         122.3772  153.3323  148.3555 H       1  UNL11111    0.0529
     31 H         124.3633  154.6328  149.1261 H       1  UNL11111    0.0462
     32 H         124.2364  156.1377  148.1883 H       1  UNL11111    0.0462
     33 H         124.6325  152.5531  145.9395 H       1  UNL11111    0.0462
     34 H         124.6083  152.3902  147.7033 H       1  UNL11111    0.0462
     35 H         121.1718  155.2898  145.3121 H       1  UNL11111    0.0502
     36 H         121.1461  153.9146  144.2136 H       1  UNL11111    0.0502
     37 H         126.6408  154.9297  148.6922 H       1  UNL11111    0.0342
     38 H         126.3483  155.8329  147.2035 H       1  UNL11111    0.0342
     39 H         126.5185  153.9435  145.9551 H       1  UNL11111    0.0342
     40 H         126.8599  152.9874  147.4002 H       1  UNL11111    0.0342
     41 H         119.7757  154.5607  147.0951 H       1  UNL11111    0.0446
     42 H         119.8436  152.9595  147.7799 H       1  UNL11111    0.0446
     43 H         123.6303  153.7111  144.3900 H       1  UNL11111    0.0891
     44 H         123.1526  155.3375  143.9617 H       1  UNL11111    0.0891
     45 H         117.9255  153.5373  146.1767 H       1  UNL11111    0.0605
     46 H         119.0825  153.5009  144.8565 H       1  UNL11111    0.0605
     47 H         121.4759  151.2181  148.0635 H       1  UNL11111    0.1002
     48 H         122.1089  148.8925  147.5267 H       1  UNL11111    0.0906
     49 H         122.7963  150.1388  143.4863 H       1  UNL11111    0.1371
     50 H         118.4609  151.4797  143.7136 H       1  UNL11111    0.0805
     51 H         116.9760  151.8109  144.6212 H       1  UNL11111    0.0805
     52 H         122.7832  148.3171  145.1915 H       1  UNL11111    0.0980
     53 H         115.6969  147.0766  143.8791 H       1  UNL11111    0.1153
     54 H         117.9137  146.2849  145.0205 H       1  UNL11111    0.1125
     55 H         113.7926  149.9899  142.3933 H       1  UNL11111    0.1070
     56 H         113.8716  148.6457  143.5394 H       1  UNL11111    0.1070
     57 H         114.8742  148.6370  142.0379 H       1  UNL11111    0.1070
@<TRIPOS>BOND
     1     1    23   ar
     2     1    26   ar
     3     2     6    1
     4     2    15    1
     5     3    24    1
     6     3    27    1
     7     4    16   ar
     8     4    20   ar
     9     5    17    1
    10     5    21    1
    11     6     8    1
    12     6     9    1
    13     6    10    1
    14     7     8    1
    15     7    11    1
    16     7    14    1
    17     7    16    1
    18     9    12    1
    19    10    13    1
    20    11    15    1
    21    12    13    1
    22    14    17    1
    23    16    18   ar
    24    18    19   ar
    25    19    22   ar
    26    20    22   ar
    27    21    23    1
    28    23    24   ar
    29    24    25   ar
    30    25    26   ar
    31     5    28    1
    32     8    29    1
    33     8    30    1
    34     9    31    1
    35     9    32    1
    36    10    33    1
    37    10    34    1
    38    11    35    1
    39    11    36    1
    40    12    37    1
    41    12    38    1
    42    13    39    1
    43    13    40    1
    44    14    41    1
    45    14    42    1
    46    15    43    1
    47    15    44    1
    48    17    45    1
    49    17    46    1
    50    18    47    1
    51    19    48    1
    52    20    49    1
    53    21    50    1
    54    21    51    1
    55    22    52    1
    56    25    53    1
    57    26    54    1
    58    27    55    1
    59    27    56    1
    60    27    57    1
@<TRIPOS>MOLECULE
66553195
 57 60 0 0 0
SMALL
GASTEIGER

@<TRIPOS>ATOM
      1 S         114.3178  155.3690  146.0035 S.2     1  UNL11111   -0.1269
      2 O         123.9912  154.8613  145.7765 O.3     1  UNL11111   -0.4593
      3 O         116.9649  156.5572  148.5459 O.3     1  UNL11111   -0.5783
      4 N         121.6509  151.6554  144.7484 N.ar    1  UNL11111   -0.3349
      5 N         117.4791  153.8879  146.1764 N.3     1  UNL11111   -0.3404
      6 C         123.8190  154.1054  146.9794 C.3     1  UNL11111    0.0110
      7 C         121.3733  153.5995  146.2503 C.3     1  UNL11111    0.0128
      8 C         122.3364  154.0709  147.3793 C.3     1  UNL11111   -0.0152
      9 C         124.6523  154.8064  148.0658 C.3     1  UNL11111   -0.0341
     10 C         124.5240  152.7443  146.9136 C.3     1  UNL11111   -0.0341
     11 C         121.7345  154.4184  144.9812 C.3     1  UNL11111   -0.0192
     12 C         126.0952  154.3951  147.7791 C.3     1  UNL11111   -0.0539
     13 C         126.0111  153.0812  147.0071 C.3     1  UNL11111   -0.0539
     14 C         119.9114  153.9464  146.6849 C.3     1  UNL11111   -0.0315
     15 C         123.2259  154.3918  144.6704 C.3     1  UNL11111    0.0064
     16 C         121.4690  152.0836  146.0216 C.ar    1  UNL11111   -0.0010
     17 C         118.8146  153.5427  145.6820 C.3     1  UNL11111   -0.0284
     18 C         121.3146  151.1752  147.0727 C.ar    1  UNL11111   -0.0514
     19 C         121.3740  149.8077  146.8126 C.ar    1  UNL11111   -0.0708
     20 C         121.7039  150.3240  144.5215 C.ar    1  UNL11111   -0.0127
     21 C         117.1067  155.2694  145.8597 C.3     1  UNL11111    0.0161
     22 C         121.5748  149.3699  145.5122 C.ar    1  UNL11111   -0.0571
     23 C         115.8846  155.6594  146.6376 C.ar    1  UNL11111    0.0248
     24 C         115.8219  156.2368  147.8893 C.ar    1  UNL11111    0.0564
     25 C         114.4837  156.4727  148.3168 C.ar    1  UNL11111   -0.0135
     26 C         113.5654  156.0345  147.3873 C.ar    1  UNL11111   -0.0275
     27 C         116.9221  156.2409  149.9319 C.3     1  UNL11111    0.0304
     28 H         117.4392  153.7602  147.1861 H       1  UNL11111    0.1338
     29 H         122.0512  155.1006  147.6424 H       1  UNL11111    0.0529
     30 H         122.2040  153.4865  148.2974 H       1  UNL11111    0.0529
     31 H         124.3679  154.4544  149.0652 H       1  UNL11111    0.0462
     32 H         124.5487  155.8965  148.0421 H       1  UNL11111    0.0462
     33 H         124.3302  152.1748  146.0022 H       1  UNL11111    0.0462
     34 H         124.2413  152.1218  147.7715 H       1  UNL11111    0.0462
     35 H         121.4503  155.4661  145.1514 H       1  UNL11111    0.0502
     36 H         121.1761  154.0826  144.1002 H       1  UNL11111    0.0502
     37 H         126.6665  154.2863  148.7066 H       1  UNL11111    0.0342
     38 H         126.5994  155.1546  147.1706 H       1  UNL11111    0.0342
     39 H         126.4362  153.2115  146.0050 H       1  UNL11111    0.0342
     40 H         126.5716  152.2804  147.4999 H       1  UNL11111    0.0342
     41 H         119.8480  155.0270  146.8693 H       1  UNL11111    0.0446
     42 H         119.6953  153.4699  147.6514 H       1  UNL11111    0.0446
     43 H         123.5758  153.4039  144.3595 H       1  UNL11111    0.0891
     44 H         123.4279  155.0673  143.8321 H       1  UNL11111    0.0891
     45 H         118.9835  153.9842  144.6943 H       1  UNL11111    0.0605
     46 H         118.8279  152.4566  145.5451 H       1  UNL11111    0.0605
     47 H         121.1378  151.5114  148.0889 H       1  UNL11111    0.1002
     48 H         121.2562  149.0910  147.6204 H       1  UNL11111    0.0906
     49 H         121.8555  150.0379  143.4847 H       1  UNL11111    0.1371
     50 H         116.9219  155.3661  144.7831 H       1  UNL11111    0.0805
     51 H         117.9161  155.9663  146.1074 H       1  UNL11111    0.0805
     52 H         121.6221  148.3135  145.2750 H       1  UNL11111    0.0980
     53 H         114.1957  156.9450  149.2460 H       1  UNL11111    0.1153
     54 H         112.4870  156.0803  147.4480 H       1  UNL11111    0.1125
     55 H         117.9157  156.4336  150.3481 H       1  UNL11111    0.1070
     56 H         116.6943  155.1798  150.0830 H       1  UNL11111    0.1070
     57 H         116.2075  156.8722  150.4686 H       1  UNL11111    0.1070
@<TRIPOS>BOND
     1     1    23   ar
     2     1    26   ar
     3     2     6    1
     4     2    15    1
     5     3    24    1
     6     3    27    1
     7     4    16   ar
     8     4    20   ar
     9     5    17    1
    10     5    21    1
    11     6     8    1
    12     6     9    1
    13     6    10    1
    14     7     8    1
    15     7    11    1
    16     7    14    1
    17     7    16    1
    18     9    12    1
    19    10    13    1
    20    11    15    1
    21    12    13    1
    22    14    17    1
    23    16    18   ar
    24    18    19   ar
    25    19    22   ar
    26    20    22   ar
    27    21    23    1
    28    23    24   ar
    29    24    25   ar
    30    25    26   ar
    31     5    28    1
    32     8    29    1
    33     8    30    1
    34     9    31    1
    35     9    32    1
    36    10    33    1
    37    10    34    1
    38    11    35    1
    39    11    36    1
    40    12    37    1
    41    12    38    1
    42    13    39    1
    43    13    40    1
    44    14    41    1
    45    14    42    1
    46    15    43    1
    47    15    44    1
    48    17    45    1
    49    17    46    1
    50    18    47    1
    51    19    48    1
    52    20    49    1
    53    21    50    1
    54    21    51    1
    55    22    52    1
    56    25    53    1
    57    26    54    1
    58    27    55    1
    59    27    56    1
    60    27    57    1
@<TRIPOS>MOLECULE
66553195
 57 60 0 0 0
SMALL
GASTEIGER

@<TRIPOS>ATOM
      1 S         118.2857  154.6327  151.5035 S.2     1  UNL11111   -0.1269
      2 O         123.7990  154.9366  145.7213 O.3     1  UNL11111   -0.4593
      3 O         119.0395  157.0870  148.6204 O.3     1  UNL11111   -0.5783
      4 N         122.0995  151.2057  147.0153 N.ar    1  UNL11111   -0.3349
      5 N         118.1085  153.1115  148.5965 N.3     1  UNL11111   -0.3404
      6 C         123.7832  154.1754  146.9363 C.3     1  UNL11111    0.0110
      7 C         121.3290  153.4643  146.3752 C.3     1  UNL11111    0.0128
      8 C         122.3428  153.9741  147.4448 C.3     1  UNL11111   -0.0152
      9 C         124.6044  154.9738  147.9650 C.3     1  UNL11111   -0.0341
     10 C         124.6429  152.9104  146.8141 C.3     1  UNL11111   -0.0341
     11 C         121.5321  154.3588  145.1212 C.3     1  UNL11111   -0.0192
     12 C         126.0643  154.7306  147.5839 C.3     1  UNL11111   -0.0539
     13 C         126.0795  153.4285  146.7884 C.3     1  UNL11111   -0.0539
     14 C         119.8625  153.6820  146.8781 C.3     1  UNL11111   -0.0315
     15 C         122.9869  154.4017  144.6834 C.3     1  UNL11111    0.0064
     16 C         121.5006  151.9675  146.0659 C.ar    1  UNL11111   -0.0010
     17 C         119.5241  153.0070  148.2172 C.3     1  UNL11111   -0.0284
     18 C         120.9849  151.3868  144.9046 C.ar    1  UNL11111   -0.0514
     19 C         121.1262  150.0152  144.6981 C.ar    1  UNL11111   -0.0708
     20 C         122.2240  149.8780  146.7929 C.ar    1  UNL11111   -0.0127
     21 C         117.6150  154.4797  148.7938 C.3     1  UNL11111    0.0161
     22 C         121.7622  149.2428  145.6575 C.ar    1  UNL11111   -0.0571
     23 C         118.3046  155.2351  149.8944 C.ar    1  UNL11111    0.0248
     24 C         118.9627  156.4481  149.8166 C.ar    1  UNL11111    0.0564
     25 C         119.4998  156.8516  151.0754 C.ar    1  UNL11111   -0.0135
     26 C         119.2078  155.9506  152.0757 C.ar    1  UNL11111   -0.0275
     27 C         119.5062  158.4275  148.6892 C.3     1  UNL11111    0.0304
     28 H         117.9792  152.6073  149.4741 H       1  UNL11111    0.1338
     29 H         121.9817  154.9564  147.7850 H       1  UNL11111    0.0529
     30 H         122.3508  153.3357  148.3366 H       1  UNL11111    0.0529
     31 H         124.4291  154.5980  148.9809 H       1  UNL11111    0.0462
     32 H         124.3745  156.0446  147.9500 H       1  UNL11111    0.0462
     33 H         124.4466  152.3155  145.9191 H       1  UNL11111    0.0462
     34 H         124.5131  152.2674  147.6931 H       1  UNL11111    0.0462
     35 H         121.2326  155.3860  145.3734 H       1  UNL11111    0.0502
     36 H         120.8972  154.0577  144.2823 H       1  UNL11111    0.0502
     37 H         126.6978  154.6691  148.4748 H       1  UNL11111    0.0342
     38 H         126.4459  155.5516  146.9663 H       1  UNL11111    0.0342
     39 H         126.3946  153.6264  145.7572 H       1  UNL11111    0.0342
     40 H         126.7769  152.6980  147.2105 H       1  UNL11111    0.0342
     41 H         119.1558  153.3313  146.1133 H       1  UNL11111    0.0446
     42 H         119.6932  154.7615  146.9758 H       1  UNL11111    0.0446
     43 H         123.3568  153.4224  144.3659 H       1  UNL11111    0.0891
     44 H         123.0853  155.0702  143.8216 H       1  UNL11111    0.0891
     45 H         119.7416  151.9365  148.1509 H       1  UNL11111    0.0605
     46 H         120.1567  153.4001  149.0195 H       1  UNL11111    0.0605
     47 H         120.4536  151.9715  144.1623 H       1  UNL11111    0.1002
     48 H         120.7297  149.5547  143.7976 H       1  UNL11111    0.0906
     49 H         122.7204  149.3224  147.5832 H       1  UNL11111    0.1371
     50 H         116.5473  154.4148  149.0404 H       1  UNL11111    0.0805
     51 H         117.6507  155.0334  147.8495 H       1  UNL11111    0.0805
     52 H         121.8842  148.1737  145.5294 H       1  UNL11111    0.0980
     53 H         120.0720  157.7511  151.2587 H       1  UNL11111    0.1153
     54 H         119.4871  156.0066  153.1188 H       1  UNL11111    0.1125
     55 H         119.4353  158.8586  147.6859 H       1  UNL11111    0.1070
     56 H         120.5568  158.4640  148.9952 H       1  UNL11111    0.1070
     57 H         118.8817  159.0325  149.3560 H       1  UNL11111    0.1070
@<TRIPOS>BOND
     1     1    23   ar
     2     1    26   ar
     3     2     6    1
     4     2    15    1
     5     3    24    1
     6     3    27    1
     7     4    16   ar
     8     4    20   ar
     9     5    17    1
    10     5    21    1
    11     6     8    1
    12     6     9    1
    13     6    10    1
    14     7     8    1
    15     7    11    1
    16     7    14    1
    17     7    16    1
    18     9    12    1
    19    10    13    1
    20    11    15    1
    21    12    13    1
    22    14    17    1
    23    16    18   ar
    24    18    19   ar
    25    19    22   ar
    26    20    22   ar
    27    21    23    1
    28    23    24   ar
    29    24    25   ar
    30    25    26   ar
    31     5    28    1
    32     8    29    1
    33     8    30    1
    34     9    31    1
    35     9    32    1
    36    10    33    1
    37    10    34    1
    38    11    35    1
    39    11    36    1
    40    12    37    1
    41    12    38    1
    42    13    39    1
    43    13    40    1
    44    14    41    1
    45    14    42    1
    46    15    43    1
    47    15    44    1
    48    17    45    1
    49    17    46    1
    50    18    47    1
    51    19    48    1
    52    20    49    1
    53    21    50    1
    54    21    51    1
    55    22    52    1
    56    25    53    1
    57    26    54    1
    58    27    55    1
    59    27    56    1
    60    27    57    1
@<TRIPOS>MOLECULE
66553195
 57 60 0 0 0
SMALL
GASTEIGER

@<TRIPOS>ATOM
      1 S         114.3420  153.7842  147.0340 S.2     1  UNL11111   -0.1269
      2 O         123.9222  154.9143  145.7645 O.3     1  UNL11111   -0.4593
      3 O         115.9961  152.1194  150.1008 O.3     1  UNL11111   -0.5783
      4 N         121.4639  151.7510  144.8512 N.ar    1  UNL11111   -0.3349
      5 N         117.4817  154.0082  146.6943 N.3     1  UNL11111   -0.3404
      6 C         123.8561  154.1237  146.9557 C.3     1  UNL11111    0.0110
      7 C         121.3496  153.6471  146.4394 C.3     1  UNL11111    0.0128
      8 C         122.4161  154.0763  147.4897 C.3     1  UNL11111   -0.0152
      9 C         124.7886  154.7929  147.9798 C.3     1  UNL11111   -0.0341
     10 C         124.5491  152.7655  146.7849 C.3     1  UNL11111   -0.0341
     11 C         121.5998  154.5061  145.1701 C.3     1  UNL11111   -0.0192
     12 C         126.1972  154.3951  147.5430 C.3     1  UNL11111   -0.0539
     13 C         126.0396  153.1003  146.7502 C.3     1  UNL11111   -0.0539
     14 C         119.9331  153.9703  147.0200 C.3     1  UNL11111   -0.0315
     15 C         123.0550  154.4816  144.7213 C.3     1  UNL11111    0.0064
     16 C         121.4122  152.1381  146.1498 C.ar    1  UNL11111   -0.0010
     17 C         118.7682  153.7416  146.0440 C.3     1  UNL11111   -0.0284
     18 C         121.3631  151.1953  147.1807 C.ar    1  UNL11111   -0.0514
     19 C         121.3994  149.8370  146.8727 C.ar    1  UNL11111   -0.0708
     20 C         121.5003  150.4275  144.5782 C.ar    1  UNL11111   -0.0127
     21 C         116.9495  152.8120  147.3625 C.3     1  UNL11111    0.0161
     22 C         121.4733  149.4417  145.5457 C.ar    1  UNL11111   -0.0571
     23 C         115.5966  153.0712  147.9712 C.ar    1  UNL11111    0.0248
     24 C         115.1524  152.7478  149.2405 C.ar    1  UNL11111    0.0564
     25 C         113.7992  153.1494  149.4574 C.ar    1  UNL11111   -0.0135
     26 C         113.2459  153.7346  148.3404 C.ar    1  UNL11111   -0.0275
     27 C         115.4103  151.7323  151.3362 C.3     1  UNL11111    0.0304
     28 H         116.8015  154.2775  145.9828 H       1  UNL11111    0.1338
     29 H         122.1621  155.0971  147.8126 H       1  UNL11111    0.0529
     30 H         122.3665  153.4616  148.3960 H       1  UNL11111    0.0529
     31 H         124.6005  154.4091  148.9901 H       1  UNL11111    0.0462
     32 H         124.6833  155.8829  147.9997 H       1  UNL11111    0.0462
     33 H         124.2700  152.2232  145.8791 H       1  UNL11111    0.0462
     34 H         124.3457  152.1179  147.6466 H       1  UNL11111    0.0462
     35 H         121.3400  155.5485  145.4008 H       1  UNL11111    0.0502
     36 H         120.9616  154.2011  144.3330 H       1  UNL11111    0.0502
     37 H         126.8576  154.2665  148.4066 H       1  UNL11111    0.0342
     38 H         126.6372  155.1715  146.9066 H       1  UNL11111    0.0342
     39 H         126.3720  153.2548  145.7170 H       1  UNL11111    0.0342
     40 H         126.6408  152.2878  147.1703 H       1  UNL11111    0.0342
     41 H         119.9075  155.0235  147.3341 H       1  UNL11111    0.0446
     42 H         119.7714  153.3865  147.9351 H       1  UNL11111    0.0446
     43 H         123.3671  153.5015  144.3509 H       1  UNL11111    0.0891
     44 H         123.1835  155.1803  143.8875 H       1  UNL11111    0.0891
     45 H         118.8606  154.4527  145.2157 H       1  UNL11111    0.0605
     46 H         118.7857  152.7409  145.5994 H       1  UNL11111    0.0605
     47 H         121.2898  151.4984  148.2201 H       1  UNL11111    0.1002
     48 H         121.3666  149.0953  147.6658 H       1  UNL11111    0.0906
     49 H         121.5525  150.1749  143.5231 H       1  UNL11111    0.1371
     50 H         117.6455  152.4867  148.1434 H       1  UNL11111    0.0805
     51 H         116.8495  151.9861  146.6464 H       1  UNL11111    0.0805
     52 H         121.5041  148.3935  145.2720 H       1  UNL11111    0.0980
     53 H         113.2415  153.0216  150.3752 H       1  UNL11111    0.1153
     54 H         112.2450  154.1269  148.2256 H       1  UNL11111    0.1125
     55 H         116.1711  151.2006  151.9159 H       1  UNL11111    0.1070
     56 H         114.5713  151.0452  151.1801 H       1  UNL11111    0.1070
     57 H         115.0987  152.6068  151.9170 H       1  UNL11111    0.1070
@<TRIPOS>BOND
     1     1    23   ar
     2     1    26   ar
     3     2     6    1
     4     2    15    1
     5     3    24    1
     6     3    27    1
     7     4    16   ar
     8     4    20   ar
     9     5    17    1
    10     5    21    1
    11     6     8    1
    12     6     9    1
    13     6    10    1
    14     7     8    1
    15     7    11    1
    16     7    14    1
    17     7    16    1
    18     9    12    1
    19    10    13    1
    20    11    15    1
    21    12    13    1
    22    14    17    1
    23    16    18   ar
    24    18    19   ar
    25    19    22   ar
    26    20    22   ar
    27    21    23    1
    28    23    24   ar
    29    24    25   ar
    30    25    26   ar
    31     5    28    1
    32     8    29    1
    33     8    30    1
    34     9    31    1
    35     9    32    1
    36    10    33    1
    37    10    34    1
    38    11    35    1
    39    11    36    1
    40    12    37    1
    41    12    38    1
    42    13    39    1
    43    13    40    1
    44    14    41    1
    45    14    42    1
    46    15    43    1
    47    15    44    1
    48    17    45    1
    49    17    46    1
    50    18    47    1
    51    19    48    1
    52    20    49    1
    53    21    50    1
    54    21    51    1
    55    22    52    1
    56    25    53    1
    57    26    54    1
    58    27    55    1
    59    27    56    1
    60    27    57    1
@<TRIPOS>MOLECULE
66553195
 57 60 0 0 0
SMALL
GASTEIGER

@<TRIPOS>ATOM
      1 S         115.1830  152.1127  149.7297 S.2     1  UNL11111   -0.1269
      2 O         123.8680  154.8387  145.6387 O.3     1  UNL11111   -0.4593
      3 O         116.4833  155.4723  151.1203 O.3     1  UNL11111   -0.5783
      4 N         121.9784  151.2309  147.1488 N.ar    1  UNL11111   -0.3349
      5 N         118.1406  153.4971  148.5389 N.3     1  UNL11111   -0.3404
      6 C         123.8326  154.1262  146.8824 C.3     1  UNL11111    0.0110
      7 C         121.3528  153.4873  146.3698 C.3     1  UNL11111    0.0128
      8 C         122.3905  154.0069  147.4100 C.3     1  UNL11111   -0.0152
      9 C         124.6991  154.9261  147.8714 C.3     1  UNL11111   -0.0341
     10 C         124.6331  152.8199  146.8009 C.3     1  UNL11111   -0.0341
     11 C         121.5741  154.3263  145.0808 C.3     1  UNL11111   -0.0192
     12 C         126.1421  154.6045  147.4844 C.3     1  UNL11111   -0.0539
     13 C         126.0907  153.2725  146.7412 C.3     1  UNL11111   -0.0539
     14 C         119.8974  153.7680  146.8662 C.3     1  UNL11111   -0.0315
     15 C         123.0246  154.3020  144.6276 C.3     1  UNL11111    0.0064
     16 C         121.4745  151.9732  146.1306 C.ar    1  UNL11111   -0.0010
     17 C         119.5367  153.1716  148.2346 C.3     1  UNL11111   -0.0284
     18 C         121.0083  151.3618  144.9645 C.ar    1  UNL11111   -0.0514
     19 C         121.1053  149.9777  144.8258 C.ar    1  UNL11111   -0.0708
     20 C         122.0642  149.8910  146.9902 C.ar    1  UNL11111   -0.0127
     21 C         117.7902  153.0772  149.8991 C.3     1  UNL11111    0.0161
     22 C         121.6485  149.2246  145.8550 C.ar    1  UNL11111   -0.0571
     23 C         116.3309  153.3171  150.1562 C.ar    1  UNL11111    0.0248
     24 C         115.7211  154.4245  150.7138 C.ar    1  UNL11111    0.0564
     25 C         114.3043  154.2728  150.7985 C.ar    1  UNL11111   -0.0135
     26 C         113.8816  153.0618  150.2961 C.ar    1  UNL11111   -0.0275
     27 C         115.7620  156.6718  151.3629 C.3     1  UNL11111    0.0304
     28 H         117.5286  153.0105  147.8852 H       1  UNL11111    0.1338
     29 H         122.0701  155.0171  147.7058 H       1  UNL11111    0.0529
     30 H         122.3810  153.4108  148.3306 H       1  UNL11111    0.0529
     31 H         124.5197  154.5971  148.9026 H       1  UNL11111    0.0462
     32 H         124.5159  156.0046  147.8176 H       1  UNL11111    0.0462
     33 H         124.3998  152.2005  145.9318 H       1  UNL11111    0.0462
     34 H         124.4841  152.2174  147.7051 H       1  UNL11111    0.0462
     35 H         121.3140  155.3722  145.2978 H       1  UNL11111    0.0502
     36 H         120.9179  154.0190  144.2609 H       1  UNL11111    0.0502
     37 H         126.7836  154.5507  148.3700 H       1  UNL11111    0.0342
     38 H         126.5508  155.3832  146.8305 H       1  UNL11111    0.0342
     39 H         126.4025  153.4160  145.6999 H       1  UNL11111    0.0342
     40 H         126.7602  152.5291  147.1851 H       1  UNL11111    0.0342
     41 H         119.1823  153.4021  146.1154 H       1  UNL11111    0.0446
     42 H         119.7446  154.8554  146.9212 H       1  UNL11111    0.0446
     43 H         123.3554  153.3003  144.3384 H       1  UNL11111    0.0891
     44 H         123.1374  154.9383  143.7434 H       1  UNL11111    0.0891
     45 H         119.6639  152.0847  148.2351 H       1  UNL11111    0.0605
     46 H         120.1875  153.5978  149.0053 H       1  UNL11111    0.0605
     47 H         120.5538  151.9312  144.1621 H       1  UNL11111    0.1002
     48 H         120.7501  149.4932  143.9205 H       1  UNL11111    0.0906
     49 H         122.4895  149.3526  147.8322 H       1  UNL11111    0.1371
     50 H         118.3858  153.6401  150.6281 H       1  UNL11111    0.0805
     51 H         118.0232  152.0148  150.0467 H       1  UNL11111    0.0805
     52 H         121.7370  148.1472  145.7784 H       1  UNL11111    0.0980
     53 H         113.6164  155.0001  151.2080 H       1  UNL11111    0.1153
     54 H         112.8692  152.6871  150.2370 H       1  UNL11111    0.1125
     55 H         116.4883  157.4646  151.5662 H       1  UNL11111    0.1070
     56 H         115.1208  156.5728  152.2449 H       1  UNL11111    0.1070
     57 H         115.1779  156.9716  150.4857 H       1  UNL11111    0.1070
@<TRIPOS>BOND
     1     1    23   ar
     2     1    26   ar
     3     2     6    1
     4     2    15    1
     5     3    24    1
     6     3    27    1
     7     4    16   ar
     8     4    20   ar
     9     5    17    1
    10     5    21    1
    11     6     8    1
    12     6     9    1
    13     6    10    1
    14     7     8    1
    15     7    11    1
    16     7    14    1
    17     7    16    1
    18     9    12    1
    19    10    13    1
    20    11    15    1
    21    12    13    1
    22    14    17    1
    23    16    18   ar
    24    18    19   ar
    25    19    22   ar
    26    20    22   ar
    27    21    23    1
    28    23    24   ar
    29    24    25   ar
    30    25    26   ar
    31     5    28    1
    32     8    29    1
    33     8    30    1
    34     9    31    1
    35     9    32    1
    36    10    33    1
    37    10    34    1
    38    11    35    1
    39    11    36    1
    40    12    37    1
    41    12    38    1
    42    13    39    1
    43    13    40    1
    44    14    41    1
    45    14    42    1
    46    15    43    1
    47    15    44    1
    48    17    45    1
    49    17    46    1
    50    18    47    1
    51    19    48    1
    52    20    49    1
    53    21    50    1
    54    21    51    1
    55    22    52    1
    56    25    53    1
    57    26    54    1
    58    27    55    1
    59    27    56    1
    60    27    57    1
@<TRIPOS>MOLECULE
66553195
 57 60 0 0 0
SMALL
GASTEIGER

@<TRIPOS>ATOM
      1 S         116.1055  155.9463  143.8154 S.2     1  UNL11111   -0.1269
      2 O         124.0672  154.6356  145.8340 O.3     1  UNL11111   -0.4593
      3 O         119.3588  157.2517  145.4344 O.3     1  UNL11111   -0.5783
      4 N         121.6538  151.4726  144.8767 N.ar    1  UNL11111   -0.3349
      5 N         117.5064  153.8966  146.1392 N.3     1  UNL11111   -0.3404
      6 C         123.8603  153.9176  147.0548 C.3     1  UNL11111    0.0110
      7 C         121.4046  153.4694  146.3160 C.3     1  UNL11111    0.0128
      8 C         122.3739  153.9378  147.4414 C.3     1  UNL11111   -0.0152
      9 C         124.7043  154.6235  148.1299 C.3     1  UNL11111   -0.0341
     10 C         124.5249  152.5350  147.0335 C.3     1  UNL11111   -0.0341
     11 C         121.8073  154.2374  145.0276 C.3     1  UNL11111   -0.0192
     12 C         126.1368  154.1635  147.8668 C.3     1  UNL11111   -0.0539
     13 C         126.0206  152.8302  147.1330 C.3     1  UNL11111   -0.0539
     14 C         119.9509  153.8792  146.7290 C.3     1  UNL11111   -0.0315
     15 C         123.2995  154.1564  144.7337 C.3     1  UNL11111    0.0064
     16 C         121.4513  151.9448  146.1312 C.ar    1  UNL11111   -0.0010
     17 C         118.8630  153.5625  145.6880 C.3     1  UNL11111   -0.0284
     18 C         121.2449  151.0731  147.2042 C.ar    1  UNL11111   -0.0514
     19 C         121.2701  149.6971  146.9863 C.ar    1  UNL11111   -0.0708
     20 C         121.6722  150.1340  144.6904 C.ar    1  UNL11111   -0.0127
     21 C         117.2425  155.3331  146.2873 C.3     1  UNL11111    0.0161
     22 C         121.4900  149.2144  145.7050 C.ar    1  UNL11111   -0.0571
     23 C         117.3367  156.1033  145.0021 C.ar    1  UNL11111    0.0248
     24 C         118.3150  156.9956  144.6033 C.ar    1  UNL11111    0.0564
     25 C         118.0537  157.5361  143.3084 C.ar    1  UNL11111   -0.0135
     26 C         116.8859  157.0453  142.7678 C.ar    1  UNL11111   -0.0275
     27 C         120.3613  158.1010  144.8923 C.3     1  UNL11111    0.0304
     28 H         117.3267  153.4399  147.0306 H       1  UNL11111    0.1338
     29 H         122.1201  154.9824  147.6764 H       1  UNL11111    0.0529
     30 H         122.2153  153.3808  148.3723 H       1  UNL11111    0.0529
     31 H         124.4014  154.3067  149.1357 H       1  UNL11111    0.0462
     32 H         124.6323  155.7151  148.0761 H       1  UNL11111    0.0462
     33 H         124.3227  151.9463  146.1362 H       1  UNL11111    0.0462
     34 H         124.2155  151.9450  147.9050 H       1  UNL11111    0.0462
     35 H         121.5562  155.2973  145.1646 H       1  UNL11111    0.0502
     36 H         121.2491  153.8935  144.1496 H       1  UNL11111    0.0502
     37 H         126.6986  154.0664  148.8014 H       1  UNL11111    0.0342
     38 H         126.6664  154.8902  147.2400 H       1  UNL11111    0.0342
     39 H         126.4594  152.9179  146.1322 H       1  UNL11111    0.0342
     40 H         126.5518  152.0282  147.6553 H       1  UNL11111    0.0342
     41 H         119.9465  154.9568  146.9330 H       1  UNL11111    0.0446
     42 H         119.6842  153.3960  147.6786 H       1  UNL11111    0.0446
     43 H         123.6229  153.1501  144.4550 H       1  UNL11111    0.0891
     44 H         123.5301  154.8008  143.8785 H       1  UNL11111    0.0891
     45 H         119.0739  154.0492  144.7314 H       1  UNL11111    0.0605
     46 H         118.8623  152.4871  145.4800 H       1  UNL11111    0.0605
     47 H         121.0568  151.4450  148.2057 H       1  UNL11111    0.1002
     48 H         121.1128  149.0090  147.8120 H       1  UNL11111    0.0906
     49 H         121.8416  149.8127  143.6668 H       1  UNL11111    0.1371
     50 H         117.8917  155.7706  147.0536 H       1  UNL11111    0.0805
     51 H         116.2240  155.4436  146.6819 H       1  UNL11111    0.0805
     52 H         121.5126  148.1504  145.5005 H       1  UNL11111    0.0980
     53 H         118.6752  158.2494  142.7839 H       1  UNL11111    0.1153
     54 H         116.4498  157.2815  141.8071 H       1  UNL11111    0.1125
     55 H         121.1579  158.1952  145.6365 H       1  UNL11111    0.1070
     56 H         119.9659  159.1034  144.6971 H       1  UNL11111    0.1070
     57 H         120.8010  157.6686  143.9869 H       1  UNL11111    0.1070
@<TRIPOS>BOND
     1     1    23   ar
     2     1    26   ar
     3     2     6    1
     4     2    15    1
     5     3    24    1
     6     3    27    1
     7     4    16   ar
     8     4    20   ar
     9     5    17    1
    10     5    21    1
    11     6     8    1
    12     6     9    1
    13     6    10    1
    14     7     8    1
    15     7    11    1
    16     7    14    1
    17     7    16    1
    18     9    12    1
    19    10    13    1
    20    11    15    1
    21    12    13    1
    22    14    17    1
    23    16    18   ar
    24    18    19   ar
    25    19    22   ar
    26    20    22   ar
    27    21    23    1
    28    23    24   ar
    29    24    25   ar
    30    25    26   ar
    31     5    28    1
    32     8    29    1
    33     8    30    1
    34     9    31    1
    35     9    32    1
    36    10    33    1
    37    10    34    1
    38    11    35    1
    39    11    36    1
    40    12    37    1
    41    12    38    1
    42    13    39    1
    43    13    40    1
    44    14    41    1
    45    14    42    1
    46    15    43    1
    47    15    44    1
    48    17    45    1
    49    17    46    1
    50    18    47    1
    51    19    48    1
    52    20    49    1
    53    21    50    1
    54    21    51    1
    55    22    52    1
    56    25    53    1
    57    26    54    1
    58    27    55    1
    59    27    56    1
    60    27    57    1
@<TRIPOS>MOLECULE
66553195
 57 60 0 0 0
SMALL
GASTEIGER

@<TRIPOS>ATOM
      1 S         114.4987  152.1007  147.7264 S.2     1  UNL11111   -0.1269
      2 O         123.8164  154.8478  145.4741 O.3     1  UNL11111   -0.4593
      3 O         115.5958  155.7529  148.3289 O.3     1  UNL11111   -0.5783
      4 N         121.6459  151.3915  144.9532 N.ar    1  UNL11111   -0.3349
      5 N         117.4183  153.5512  146.2827 N.3     1  UNL11111   -0.3404
      6 C         123.7747  154.2218  146.7602 C.3     1  UNL11111    0.0110
      7 C         121.3351  153.4665  146.2614 C.3     1  UNL11111    0.0128
      8 C         122.3258  154.1300  147.2628 C.3     1  UNL11111   -0.0152
      9 C         124.6175  155.0950  147.7055 C.3     1  UNL11111   -0.0341
     10 C         124.5766  152.9139  146.7906 C.3     1  UNL11111   -0.0341
     11 C         121.5537  154.1653  144.8910 C.3     1  UNL11111   -0.0192
     12 C         126.0677  154.7532  147.3680 C.3     1  UNL11111   -0.0539
     13 C         126.0359  153.3625  146.7400 C.3     1  UNL11111   -0.0539
     14 C         119.8782  153.7516  146.7574 C.3     1  UNL11111   -0.0315
     15 C         123.0204  154.2077  144.4810 C.3     1  UNL11111    0.0064
     16 C         121.5354  151.9452  146.1861 C.ar    1  UNL11111   -0.0010
     17 C         118.7651  153.0999  145.9180 C.3     1  UNL11111   -0.0284
     18 C         121.5378  151.1503  147.3355 C.ar    1  UNL11111   -0.0514
     19 C         121.6885  149.7703  147.2151 C.ar    1  UNL11111   -0.0708
     20 C         121.7928  150.0512  144.8626 C.ar    1  UNL11111   -0.0127
     21 C         117.0489  153.2210  147.6616 C.3     1  UNL11111    0.0161
     22 C         121.8223  149.2065  145.9550 C.ar    1  UNL11111   -0.0571
     23 C         115.5761  153.4302  147.8704 C.ar    1  UNL11111    0.0248
     24 C         114.9010  154.5979  148.1691 C.ar    1  UNL11111    0.0564
     25 C         113.4954  154.3907  148.3013 C.ar    1  UNL11111   -0.0135
     26 C         113.1437  153.0768  148.0834 C.ar    1  UNL11111   -0.0275
     27 C         114.8288  156.9301  148.1141 C.3     1  UNL11111    0.0304
     28 H         116.7482  153.1016  145.6586 H       1  UNL11111    0.1338
     29 H         121.9773  155.1602  147.4309 H       1  UNL11111    0.0529
     30 H         122.2955  153.6463  148.2462 H       1  UNL11111    0.0529
     31 H         124.4208  154.8387  148.7541 H       1  UNL11111    0.0462
     32 H         124.4312  156.1660  147.5720 H       1  UNL11111    0.0462
     33 H         124.3699  152.2340  145.9614 H       1  UNL11111    0.0462
     34 H         124.3982  152.3735  147.7283 H       1  UNL11111    0.0462
     35 H         121.2020  155.2032  144.9703 H       1  UNL11111    0.0502
     36 H         120.9700  153.6985  144.0900 H       1  UNL11111    0.0502
     37 H         126.6978  154.7808  148.2628 H       1  UNL11111    0.0342
     38 H         126.4793  155.4764  146.6548 H       1  UNL11111    0.0342
     39 H         126.3820  153.4164  145.7011 H       1  UNL11111    0.0342
     40 H         126.6888  152.6598  147.2674 H       1  UNL11111    0.0342
     41 H         119.7147  154.8381  146.7777 H       1  UNL11111    0.0446
     42 H         119.7853  153.4138  147.7979 H       1  UNL11111    0.0446
     43 H         123.4237  153.2176  144.2525 H       1  UNL11111    0.0891
     44 H         123.1178  154.7986  143.5637 H       1  UNL11111    0.0891
     45 H         118.9047  153.3522  144.8625 H       1  UNL11111    0.0605
     46 H         118.8104  152.0074  145.9904 H       1  UNL11111    0.0605
     47 H         121.4159  151.5839  148.3225 H       1  UNL11111    0.1002
     48 H         121.6963  149.1412  148.1007 H       1  UNL11111    0.0906
     49 H         121.8870  149.6642  143.8520 H       1  UNL11111    0.1371
     50 H         117.5962  153.8607  148.3635 H       1  UNL11111    0.0805
     51 H         117.3141  152.1820  147.8949 H       1  UNL11111    0.0805
     52 H         121.9407  148.1369  145.8266 H       1  UNL11111    0.0980
     53 H         112.7684  155.1520  148.5498 H       1  UNL11111    0.1153
     54 H         112.1546  152.6417  148.1199 H       1  UNL11111    0.1125
     55 H         115.5167  157.7809  148.0993 H       1  UNL11111    0.1070
     56 H         114.1184  157.0892  148.9318 H       1  UNL11111    0.1070
     57 H         114.3119  156.9017  147.1481 H       1  UNL11111    0.1070
@<TRIPOS>BOND
     1     1    23   ar
     2     1    26   ar
     3     2     6    1
     4     2    15    1
     5     3    24    1
     6     3    27    1
     7     4    16   ar
     8     4    20   ar
     9     5    17    1
    10     5    21    1
    11     6     8    1
    12     6     9    1
    13     6    10    1
    14     7     8    1
    15     7    11    1
    16     7    14    1
    17     7    16    1
    18     9    12    1
    19    10    13    1
    20    11    15    1
    21    12    13    1
    22    14    17    1
    23    16    18   ar
    24    18    19   ar
    25    19    22   ar
    26    20    22   ar
    27    21    23    1
    28    23    24   ar
    29    24    25   ar
    30    25    26   ar
    31     5    28    1
    32     8    29    1
    33     8    30    1
    34     9    31    1
    35     9    32    1
    36    10    33    1
    37    10    34    1
    38    11    35    1
    39    11    36    1
    40    12    37    1
    41    12    38    1
    42    13    39    1
    43    13    40    1
    44    14    41    1
    45    14    42    1
    46    15    43    1
    47    15    44    1
    48    17    45    1
    49    17    46    1
    50    18    47    1
    51    19    48    1
    52    20    49    1
    53    21    50    1
    54    21    51    1
    55    22    52    1
    56    25    53    1
    57    26    54    1
    58    27    55    1
    59    27    56    1
    60    27    57    1
@<TRIPOS>MOLECULE
66553195
 57 60 0 0 0
SMALL
GASTEIGER

@<TRIPOS>ATOM
      1 S         118.8197  156.7625  150.7491 S.2     1  UNL11111   -0.1269
      2 O         123.9947  154.9253  145.8368 O.3     1  UNL11111   -0.4593
      3 O         118.9707  159.6576  148.1999 O.3     1  UNL11111   -0.5783
      4 N         121.4483  151.9474  144.7238 N.ar    1  UNL11111   -0.3349
      5 N         118.2088  155.5597  147.8438 N.3     1  UNL11111   -0.3404
      6 C         123.8581  154.1032  147.0012 C.3     1  UNL11111    0.0110
      7 C         121.3485  153.7734  146.4057 C.3     1  UNL11111    0.0128
      8 C         122.4023  154.1090  147.4986 C.3     1  UNL11111   -0.0152
      9 C         124.7894  154.6968  148.0727 C.3     1  UNL11111   -0.0341
     10 C         124.4934  152.7202  146.8070 C.3     1  UNL11111   -0.0341
     11 C         121.6689  154.6685  145.1796 C.3     1  UNL11111   -0.0192
     12 C         126.1908  154.2450  147.6680 C.3     1  UNL11111   -0.0539
     13 C         125.9984  152.9830  146.8319 C.3     1  UNL11111   -0.0539
     14 C         119.8982  154.0502  146.9281 C.3     1  UNL11111   -0.0315
     15 C         123.1310  154.5721  144.7581 C.3     1  UNL11111    0.0064
     16 C         121.3760  152.2726  146.0385 C.ar    1  UNL11111   -0.0010
     17 C         119.5150  155.5168  147.1783 C.3     1  UNL11111   -0.0284
     18 C         121.2776  151.2806  147.0196 C.ar    1  UNL11111   -0.0514
     19 C         121.2821  149.9385  146.6449 C.ar    1  UNL11111   -0.0708
     20 C         121.4504  150.6386  144.3857 C.ar    1  UNL11111   -0.0127
     21 C         117.7806  156.9311  148.1513 C.3     1  UNL11111    0.0161
     22 C         121.3734  149.6072  145.3016 C.ar    1  UNL11111   -0.0571
     23 C         118.5663  157.5821  149.2584 C.ar    1  UNL11111    0.0248
     24 C         119.1175  158.8497  149.2818 C.ar    1  UNL11111    0.0564
     25 C         119.8019  159.1186  150.5051 C.ar    1  UNL11111   -0.0135
     26 C         119.7234  158.0626  151.3859 C.ar    1  UNL11111   -0.0275
     27 C         119.3869  161.0021  148.3975 C.3     1  UNL11111    0.0304
     28 H         118.2517  155.0420  148.7211 H       1  UNL11111    0.1338
     29 H         122.2028  155.1263  147.8585 H       1  UNL11111    0.0529
     30 H         122.2977  153.4622  148.3773 H       1  UNL11111    0.0529
     31 H         124.5514  154.2932  149.0648 H       1  UNL11111    0.0462
     32 H         124.7346  155.7896  148.1230 H       1  UNL11111    0.0462
     33 H         124.2214  152.2222  145.8740 H       1  UNL11111    0.0462
     34 H         124.2314  152.0552  147.6390 H       1  UNL11111    0.0462
     35 H         121.4925  155.7183  145.4434 H       1  UNL11111    0.0502
     36 H         121.0131  154.4427  144.3305 H       1  UNL11111    0.0502
     37 H         126.8159  154.0599  148.5474 H       1  UNL11111    0.0342
     38 H         126.6872  155.0176  147.0697 H       1  UNL11111    0.0342
     39 H         126.3736  153.1500  145.8155 H       1  UNL11111    0.0342
     40 H         126.5448  152.1303  147.2474 H       1  UNL11111    0.0342
     41 H         119.7516  153.4904  147.8629 H       1  UNL11111    0.0446
     42 H         119.1738  153.6336  146.2123 H       1  UNL11111    0.0446
     43 H         123.4017  153.5898  144.3632 H       1  UNL11111    0.0891
     44 H         123.3181  155.2894  143.9516 H       1  UNL11111    0.0891
     45 H         120.2717  156.0081  147.7947 H       1  UNL11111    0.0605
     46 H         119.4468  156.0495  146.2240 H       1  UNL11111    0.0605
     47 H         121.1877  151.5333  148.0708 H       1  UNL11111    0.1002
     48 H         121.2077  149.1597  147.3985 H       1  UNL11111    0.0906
     49 H         121.5166  150.4374  143.3204 H       1  UNL11111    0.1371
     50 H         116.7278  156.8946  148.4578 H       1  UNL11111    0.0805
     51 H         117.8057  157.5383  147.2386 H       1  UNL11111    0.0805
     52 H         121.3771  148.5737  144.9759 H       1  UNL11111    0.0980
     53 H         120.3282  160.0323  150.7466 H       1  UNL11111    0.1153
     54 H         120.1464  157.9968  152.3788 H       1  UNL11111    0.1125
     55 H         119.1423  161.5654  147.4918 H       1  UNL11111    0.1070
     56 H         120.4702  161.0611  148.5456 H       1  UNL11111    0.1070
     57 H         118.8509  161.4664  149.2328 H       1  UNL11111    0.1070
@<TRIPOS>BOND
     1     1    23   ar
     2     1    26   ar
     3     2     6    1
     4     2    15    1
     5     3    24    1
     6     3    27    1
     7     4    16   ar
     8     4    20   ar
     9     5    17    1
    10     5    21    1
    11     6     8    1
    12     6     9    1
    13     6    10    1
    14     7     8    1
    15     7    11    1
    16     7    14    1
    17     7    16    1
    18     9    12    1
    19    10    13    1
    20    11    15    1
    21    12    13    1
    22    14    17    1
    23    16    18   ar
    24    18    19   ar
    25    19    22   ar
    26    20    22   ar
    27    21    23    1
    28    23    24   ar
    29    24    25   ar
    30    25    26   ar
    31     5    28    1
    32     8    29    1
    33     8    30    1
    34     9    31    1
    35     9    32    1
    36    10    33    1
    37    10    34    1
    38    11    35    1
    39    11    36    1
    40    12    37    1
    41    12    38    1
    42    13    39    1
    43    13    40    1
    44    14    41    1
    45    14    42    1
    46    15    43    1
    47    15    44    1
    48    17    45    1
    49    17    46    1
    50    18    47    1
    51    19    48    1
    52    20    49    1
    53    21    50    1
    54    21    51    1
    55    22    52    1
    56    25    53    1
    57    26    54    1
    58    27    55    1
    59    27    56    1
    60    27    57    1
@<TRIPOS>MOLECULE
66553195
 57 60 0 0 0
SMALL
GASTEIGER

@<TRIPOS>ATOM
      1 S         114.3546  152.6982  147.5468 S.2     1  UNL11111   -0.1269
      2 O         123.8365  154.9308  145.6740 O.3     1  UNL11111   -0.4593
      3 O         116.0990  155.2534  149.8587 O.3     1  UNL11111   -0.5783
      4 N         121.5748  151.2674  147.2119 N.ar    1  UNL11111   -0.3349
      5 N         117.4253  153.8199  146.6254 N.3     1  UNL11111   -0.3404
      6 C         123.8083  154.1269  146.8604 C.3     1  UNL11111    0.0110
      7 C         121.3208  153.5528  146.3522 C.3     1  UNL11111    0.0128
      8 C         122.3758  154.0230  147.4018 C.3     1  UNL11111   -0.0152
      9 C         124.7220  154.8195  147.8857 C.3     1  UNL11111   -0.0341
     10 C         124.5505  152.7982  146.6677 C.3     1  UNL11111   -0.0341
     11 C         121.5183  154.4520  145.1050 C.3     1  UNL11111   -0.0192
     12 C         126.1421  154.4759  147.4403 C.3     1  UNL11111   -0.0539
     13 C         126.0269  153.1889  146.6280 C.3     1  UNL11111   -0.0539
     14 C         119.9067  153.8126  146.9728 C.3     1  UNL11111   -0.0315
     15 C         122.9685  154.4914  144.6377 C.3     1  UNL11111    0.0064
     16 C         121.4525  152.0429  146.1033 C.ar    1  UNL11111   -0.0010
     17 C         118.7175  153.3540  146.1138 C.3     1  UNL11111   -0.0284
     18 C         121.3871  151.4661  144.8337 C.ar    1  UNL11111   -0.0514
     19 C         121.4814  150.0809  144.7013 C.ar    1  UNL11111   -0.0708
     20 C         121.6650  149.9280  147.0581 C.ar    1  UNL11111   -0.0127
     21 C         117.0708  153.2050  147.9105 C.3     1  UNL11111    0.0161
     22 C         121.6264  149.2934  145.8331 C.ar    1  UNL11111   -0.0571
     23 C         115.6550  153.5499  148.2790 C.ar    1  UNL11111    0.0248
     24 C         115.2002  154.4983  149.1755 C.ar    1  UNL11111    0.0564
     25 C         113.7749  154.5234  149.2535 C.ar    1  UNL11111   -0.0135
     26 C         113.1926  153.5967  148.4169 C.ar    1  UNL11111   -0.0275
     27 C         115.5360  156.3155  150.6150 C.3     1  UNL11111    0.0304
     28 H         116.6980  153.5711  145.9550 H       1  UNL11111    0.1338
     29 H         122.0822  155.0308  147.7322 H       1  UNL11111    0.0529
     30 H         122.3535  153.3995  148.3048 H       1  UNL11111    0.0529
     31 H         124.5523  154.4202  148.8934 H       1  UNL11111    0.0462
     32 H         124.5780  155.9048  147.9163 H       1  UNL11111    0.0462
     33 H         124.2860  152.2591  145.7555 H       1  UNL11111    0.0462
     34 H         124.3776  152.1319  147.5217 H       1  UNL11111    0.0462
     35 H         121.2312  155.4790  145.3711 H       1  UNL11111    0.0502
     36 H         120.8707  154.1630  144.2715 H       1  UNL11111    0.0502
     37 H         126.8078  154.3558  148.3011 H       1  UNL11111    0.0342
     38 H         126.5549  155.2765  146.8159 H       1  UNL11111    0.0342
     39 H         126.3452  153.3722  145.5951 H       1  UNL11111    0.0342
     40 H         126.6614  152.3930  147.0305 H       1  UNL11111    0.0342
     41 H         119.7995  154.8874  147.1755 H       1  UNL11111    0.0446
     42 H         119.8533  153.3136  147.9497 H       1  UNL11111    0.0446
     43 H         123.3068  153.5287  144.2450 H       1  UNL11111    0.0891
     44 H         123.0601  155.2096  143.8157 H       1  UNL11111    0.0891
     45 H         118.8200  153.7620  145.1034 H       1  UNL11111    0.0605
     46 H         118.7011  152.2630  146.0132 H       1  UNL11111    0.0605
     47 H         121.2583  152.0591  143.9362 H       1  UNL11111    0.1002
     48 H         121.4372  149.6219  143.7174 H       1  UNL11111    0.0906
     49 H         121.7712  149.3633  147.9797 H       1  UNL11111    0.1371
     50 H         117.7420  153.5600  148.7000 H       1  UNL11111    0.0805
     51 H         117.1767  152.1137  147.8604 H       1  UNL11111    0.0805
     52 H         121.7020  148.2146  145.7629 H       1  UNL11111    0.0980
     53 H         113.1894  155.1766  149.8863 H       1  UNL11111    0.1153
     54 H         112.1384  153.4017  148.2774 H       1  UNL11111    0.1125
     55 H         116.3589  156.8829  151.0604 H       1  UNL11111    0.1070
     56 H         114.9156  155.9319  151.4318 H       1  UNL11111    0.1070
     57 H         114.9659  157.0000  149.9774 H       1  UNL11111    0.1070
@<TRIPOS>BOND
     1     1    23   ar
     2     1    26   ar
     3     2     6    1
     4     2    15    1
     5     3    24    1
     6     3    27    1
     7     4    16   ar
     8     4    20   ar
     9     5    17    1
    10     5    21    1
    11     6     8    1
    12     6     9    1
    13     6    10    1
    14     7     8    1
    15     7    11    1
    16     7    14    1
    17     7    16    1
    18     9    12    1
    19    10    13    1
    20    11    15    1
    21    12    13    1
    22    14    17    1
    23    16    18   ar
    24    18    19   ar
    25    19    22   ar
    26    20    22   ar
    27    21    23    1
    28    23    24   ar
    29    24    25   ar
    30    25    26   ar
    31     5    28    1
    32     8    29    1
    33     8    30    1
    34     9    31    1
    35     9    32    1
    36    10    33    1
    37    10    34    1
    38    11    35    1
    39    11    36    1
    40    12    37    1
    41    12    38    1
    42    13    39    1
    43    13    40    1
    44    14    41    1
    45    14    42    1
    46    15    43    1
    47    15    44    1
    48    17    45    1
    49    17    46    1
    50    18    47    1
    51    19    48    1
    52    20    49    1
    53    21    50    1
    54    21    51    1
    55    22    52    1
    56    25    53    1
    57    26    54    1
    58    27    55    1
    59    27    56    1
    60    27    57    1
@<TRIPOS>MOLECULE
66553195
 57 60 0 0 0
SMALL
GASTEIGER

@<TRIPOS>ATOM
      1 S         119.6231  157.8407  143.1320 S.2     1  UNL11111   -0.1269
      2 O         124.2868  154.9177  146.2751 O.3     1  UNL11111   -0.4593
      3 O         118.2195  154.6064  141.5535 O.3     1  UNL11111   -0.5783
      4 N         121.6381  151.3442  147.1247 N.ar    1  UNL11111   -0.3349
      5 N         119.1586  154.2246  144.4012 N.3     1  UNL11111   -0.3404
      6 C         123.9701  154.0666  147.3832 C.3     1  UNL11111    0.0110
      7 C         121.6025  153.6798  146.3556 C.3     1  UNL11111    0.0128
      8 C         122.4528  154.0371  147.6191 C.3     1  UNL11111   -0.0152
      9 C         124.6961  154.6519  148.6063 C.3     1  UNL11111   -0.0341
     10 C         124.6613  152.7018  147.2689 C.3     1  UNL11111   -0.0341
     11 C         122.1086  154.6204  145.2304 C.3     1  UNL11111   -0.0192
     12 C         126.1562  154.2381  148.4290 C.3     1  UNL11111   -0.0539
     13 C         126.1355  152.9985  147.5385 C.3     1  UNL11111   -0.0539
     14 C         120.1065  153.9883  146.7165 C.3     1  UNL11111   -0.0315
     15 C         123.6220  154.5799  145.0653 C.3     1  UNL11111    0.0064
     16 C         121.7072  152.1777  146.0525 C.ar    1  UNL11111   -0.0010
     17 C         119.0240  153.5794  145.7012 C.3     1  UNL11111   -0.0284
     18 C         121.7932  151.6670  144.7563 C.ar    1  UNL11111   -0.0514
     19 C         121.8461  150.2872  144.5617 C.ar    1  UNL11111   -0.0708
     20 C         121.6933  150.0114  146.9100 C.ar    1  UNL11111   -0.0127
     21 C         118.5925  155.5770  144.3792 C.3     1  UNL11111    0.0161
     22 C         121.8000  149.4397  145.6580 C.ar    1  UNL11111   -0.0571
     23 C         118.9306  156.2687  143.0878 C.ar    1  UNL11111    0.0248
     24 C         118.7638  155.8301  141.7873 C.ar    1  UNL11111    0.0564
     25 C         119.1937  156.7969  140.8295 C.ar    1  UNL11111   -0.0135
     26 C         119.6858  157.9353  141.4293 C.ar    1  UNL11111   -0.0275
     27 C         118.5581  154.0524  140.2883 C.3     1  UNL11111    0.0304
     28 H         118.6574  153.6855  143.6923 H       1  UNL11111    0.1338
     29 H         122.1562  155.0487  147.9354 H       1  UNL11111    0.0529
     30 H         122.2126  153.3824  148.4665 H       1  UNL11111    0.0529
     31 H         124.3072  154.2193  149.5363 H       1  UNL11111    0.0462
     32 H         124.6083  155.7418  148.6695 H       1  UNL11111    0.0462
     33 H         124.5530  152.2181  146.2957 H       1  UNL11111    0.0462
     34 H         124.2874  152.0142  148.0373 H       1  UNL11111    0.0462
     35 H         121.8301  155.6511  145.4901 H       1  UNL11111    0.0502
     36 H         121.6520  154.4132  144.2604 H       1  UNL11111    0.0502
     37 H         126.6302  154.0376  149.3951 H       1  UNL11111    0.0342
     38 H         126.7275  155.0374  147.9431 H       1  UNL11111    0.0342
     39 H         126.6603  153.2073  146.5989 H       1  UNL11111    0.0342
     40 H         126.6345  152.1466  148.0109 H       1  UNL11111    0.0342
     41 H         120.0032  155.0582  146.9402 H       1  UNL11111    0.0446
     42 H         119.8605  153.4739  147.6569 H       1  UNL11111    0.0446
     43 H         123.9733  153.6118  144.6970 H       1  UNL11111    0.0891
     44 H         123.9203  155.3218  144.3167 H       1  UNL11111    0.0891
     45 H         119.0611  152.4946  145.5532 H       1  UNL11111    0.0605
     46 H         118.0316  153.7771  146.1260 H       1  UNL11111    0.0605
     47 H         121.8009  152.3137  143.8865 H       1  UNL11111    0.1002
     48 H         121.9148  149.8809  143.5567 H       1  UNL11111    0.0906
     49 H         121.6456  149.3976  147.8046 H       1  UNL11111    0.1371
     50 H         118.9713  156.1603  145.2259 H       1  UNL11111    0.0805
     51 H         117.5009  155.5287  144.4789 H       1  UNL11111    0.0805
     52 H         121.8381  148.3633  145.5396 H       1  UNL11111    0.0980
     53 H         119.1458  156.6844  139.7553 H       1  UNL11111    0.1153
     54 H         120.0758  158.8215  140.9485 H       1  UNL11111    0.1125
     55 H         118.2144  153.0136  140.2749 H       1  UNL11111    0.1070
     56 H         119.6428  154.0463  140.1311 H       1  UNL11111    0.1070
     57 H         118.0487  154.5838  139.4782 H       1  UNL11111    0.1070
@<TRIPOS>BOND
     1     1    23   ar
     2     1    26   ar
     3     2     6    1
     4     2    15    1
     5     3    24    1
     6     3    27    1
     7     4    16   ar
     8     4    20   ar
     9     5    17    1
    10     5    21    1
    11     6     8    1
    12     6     9    1
    13     6    10    1
    14     7     8    1
    15     7    11    1
    16     7    14    1
    17     7    16    1
    18     9    12    1
    19    10    13    1
    20    11    15    1
    21    12    13    1
    22    14    17    1
    23    16    18   ar
    24    18    19   ar
    25    19    22   ar
    26    20    22   ar
    27    21    23    1
    28    23    24   ar
    29    24    25   ar
    30    25    26   ar
    31     5    28    1
    32     8    29    1
    33     8    30    1
    34     9    31    1
    35     9    32    1
    36    10    33    1
    37    10    34    1
    38    11    35    1
    39    11    36    1
    40    12    37    1
    41    12    38    1
    42    13    39    1
    43    13    40    1
    44    14    41    1
    45    14    42    1
    46    15    43    1
    47    15    44    1
    48    17    45    1
    49    17    46    1
    50    18    47    1
    51    19    48    1
    52    20    49    1
    53    21    50    1
    54    21    51    1
    55    22    52    1
    56    25    53    1
    57    26    54    1
    58    27    55    1
    59    27    56    1
    60    27    57    1
@<TRIPOS>MOLECULE
66553195
 57 60 0 0 0
SMALL
GASTEIGER

@<TRIPOS>ATOM
      1 S         116.2090  153.5599  152.0481 S.2     1  UNL11111   -0.1269
      2 O         123.9652  154.9404  145.8659 O.3     1  UNL11111   -0.4593
      3 O         115.2439  153.3120  148.3170 O.3     1  UNL11111   -0.5783
      4 N         121.9140  151.2992  147.0419 N.ar    1  UNL11111   -0.3349
      5 N         118.2781  153.6281  148.8365 N.3     1  UNL11111   -0.3404
      6 C         123.9251  154.1012  147.0281 C.3     1  UNL11111    0.0110
      7 C         121.3982  153.6560  146.5351 C.3     1  UNL11111    0.0128
      8 C         122.4944  153.9994  147.5898 C.3     1  UNL11111   -0.0152
      9 C         124.8621  154.7459  148.0648 C.3     1  UNL11111   -0.0341
     10 C         124.6503  152.7720  146.7823 C.3     1  UNL11111   -0.0341
     11 C         121.6314  154.6194  145.3388 C.3     1  UNL11111   -0.0192
     12 C         126.2727  154.3998  147.5904 C.3     1  UNL11111   -0.0539
     13 C         126.1290  153.1519  146.7234 C.3     1  UNL11111   -0.0539
     14 C         119.9830  153.9731  147.1180 C.3     1  UNL11111   -0.0315
     15 C         123.0635  154.5625  144.8342 C.3     1  UNL11111    0.0064
     16 C         121.4233  152.1745  146.1280 C.ar    1  UNL11111   -0.0010
     17 C         119.5515  153.1192  148.3200 C.3     1  UNL11111   -0.0284
     18 C         120.8835  151.7197  144.9232 C.ar    1  UNL11111   -0.0514
     19 C         120.8939  150.3551  144.6358 C.ar    1  UNL11111   -0.0708
     20 C         121.9155  149.9817  146.7402 C.ar    1  UNL11111   -0.0127
     21 C         117.7381  152.7373  149.8690 C.3     1  UNL11111    0.0161
     22 C         121.4245  149.4660  145.5579 C.ar    1  UNL11111   -0.0571
     23 C         116.4176  153.2495  150.3727 C.ar    1  UNL11111    0.0248
     24 C         115.2600  153.5115  149.6620 C.ar    1  UNL11111    0.0564
     25 C         114.2010  153.9648  150.5049 C.ar    1  UNL11111   -0.0135
     26 C         114.5856  154.0376  151.8255 C.ar    1  UNL11111   -0.0275
     27 C         114.1254  153.8800  147.6487 C.3     1  UNL11111    0.0304
     28 H         117.5888  153.6694  148.0839 H       1  UNL11111    0.1338
     29 H         122.2423  154.9861  148.0063 H       1  UNL11111    0.0529
     30 H         122.4766  153.3073  148.4401 H       1  UNL11111    0.0529
     31 H         124.6988  154.3152  149.0606 H       1  UNL11111    0.0462
     32 H         124.7332  155.8314  148.1337 H       1  UNL11111    0.0462
     33 H         124.3595  152.2626  145.8606 H       1  UNL11111    0.0462
     34 H         124.4927  152.0841  147.6218 H       1  UNL11111    0.0462
     35 H         121.4391  155.6475  145.6774 H       1  UNL11111    0.0502
     36 H         120.9351  154.4407  144.5137 H       1  UNL11111    0.0502
     37 H         126.9432  154.2306  148.4391 H       1  UNL11111    0.0342
     38 H         126.6939  155.2204  146.9984 H       1  UNL11111    0.0342
     39 H         126.4231  153.3801  145.6922 H       1  UNL11111    0.0342
     40 H         126.7668  152.3342  147.0735 H       1  UNL11111    0.0342
     41 H         119.2315  153.8583  146.3234 H       1  UNL11111    0.0446
     42 H         119.9513  155.0325  147.4102 H       1  UNL11111    0.0446
     43 H         123.3261  153.5804  144.4302 H       1  UNL11111    0.0891
     44 H         123.1880  155.2822  144.0181 H       1  UNL11111    0.0891
     45 H         119.4340  152.0750  148.0113 H       1  UNL11111    0.0605
     46 H         120.3032  153.1652  149.1140 H       1  UNL11111    0.0605
     47 H         120.4381  152.3969  144.2038 H       1  UNL11111    0.1002
     48 H         120.4815  149.9908  143.6990 H       1  UNL11111    0.0906
     49 H         122.3353  149.3334  147.5039 H       1  UNL11111    0.1371
     50 H         118.4589  152.6503  150.6909 H       1  UNL11111    0.0805
     51 H         117.5821  151.7306  149.4605 H       1  UNL11111    0.0805
     52 H         121.4466  148.3999  145.3646 H       1  UNL11111    0.0980
     53 H         113.2026  154.2247  150.1803 H       1  UNL11111    0.1153
     54 H         113.9895  154.3470  152.6727 H       1  UNL11111    0.1125
     55 H         114.2758  153.7479  146.5728 H       1  UNL11111    0.1070
     56 H         114.0473  154.9553  147.8442 H       1  UNL11111    0.1070
     57 H         113.1997  153.3631  147.9222 H       1  UNL11111    0.1070
@<TRIPOS>BOND
     1     1    23   ar
     2     1    26   ar
     3     2     6    1
     4     2    15    1
     5     3    24    1
     6     3    27    1
     7     4    16   ar
     8     4    20   ar
     9     5    17    1
    10     5    21    1
    11     6     8    1
    12     6     9    1
    13     6    10    1
    14     7     8    1
    15     7    11    1
    16     7    14    1
    17     7    16    1
    18     9    12    1
    19    10    13    1
    20    11    15    1
    21    12    13    1
    22    14    17    1
    23    16    18   ar
    24    18    19   ar
    25    19    22   ar
    26    20    22   ar
    27    21    23    1
    28    23    24   ar
    29    24    25   ar
    30    25    26   ar
    31     5    28    1
    32     8    29    1
    33     8    30    1
    34     9    31    1
    35     9    32    1
    36    10    33    1
    37    10    34    1
    38    11    35    1
    39    11    36    1
    40    12    37    1
    41    12    38    1
    42    13    39    1
    43    13    40    1
    44    14    41    1
    45    14    42    1
    46    15    43    1
    47    15    44    1
    48    17    45    1
    49    17    46    1
    50    18    47    1
    51    19    48    1
    52    20    49    1
    53    21    50    1
    54    21    51    1
    55    22    52    1
    56    25    53    1
    57    26    54    1
    58    27    55    1
    59    27    56    1
    60    27    57    1
@<TRIPOS>MOLECULE
66553195
 57 60 0 0 0
SMALL
GASTEIGER

@<TRIPOS>ATOM
      1 S         115.9413  155.7113  144.4070 S.2     1  UNL11111   -0.1269
      2 O         123.8497  154.8635  145.8420 O.3     1  UNL11111   -0.4593
      3 O         118.7927  157.2317  146.5198 O.3     1  UNL11111   -0.5783
      4 N         121.5958  151.1264  147.1344 N.ar    1  UNL11111   -0.3349
      5 N         117.3930  153.4916  146.4441 N.3     1  UNL11111   -0.3404
      6 C         123.7720  154.0170  146.9966 C.3     1  UNL11111    0.0110
      7 C         121.3211  153.4338  146.3407 C.3     1  UNL11111    0.0128
      8 C         122.3144  153.8790  147.4600 C.3     1  UNL11111   -0.0152
      9 C         124.6244  154.6837  148.0895 C.3     1  UNL11111   -0.0341
     10 C         124.5407  152.7045  146.7965 C.3     1  UNL11111   -0.0341
     11 C         121.5717  154.3783  145.1373 C.3     1  UNL11111   -0.0192
     12 C         126.0693  154.3734  147.7028 C.3     1  UNL11111   -0.0539
     13 C         126.0121  153.1130  146.8441 C.3     1  UNL11111   -0.0539
     14 C         119.8706  153.6474  146.8930 C.3     1  UNL11111   -0.0315
     15 C         123.0430  154.4483  144.7475 C.3     1  UNL11111    0.0064
     16 C         121.4894  151.9350  146.0474 C.ar    1  UNL11111   -0.0010
     17 C         118.7436  153.3498  145.8910 C.3     1  UNL11111   -0.0284
     18 C         121.4754  151.3990  144.7587 C.ar    1  UNL11111   -0.0514
     19 C         121.6011  150.0207  144.5852 C.ar    1  UNL11111   -0.0708
     20 C         121.7160  149.7945  146.9404 C.ar    1  UNL11111   -0.0127
     21 C         117.0238  154.8570  146.8363 C.3     1  UNL11111    0.0161
     22 C         121.7270  149.1995  145.6952 C.ar    1  UNL11111   -0.0571
     23 C         117.0524  155.8504  145.7095 C.ar    1  UNL11111    0.0248
     24 C         117.8688  156.9566  145.5624 C.ar    1  UNL11111    0.0564
     25 C         117.6008  157.6669  144.3539 C.ar    1  UNL11111   -0.0135
     26 C         116.5784  157.0923  143.6314 C.ar    1  UNL11111   -0.0275
     27 C         119.4816  158.4629  146.3512 C.3     1  UNL11111    0.0304
     28 H         117.3082  152.8900  147.2622 H       1  UNL11111    0.1338
     29 H         121.9934  154.8728  147.8072 H       1  UNL11111    0.0529
     30 H         122.2523  153.2263  148.3400 H       1  UNL11111    0.0529
     31 H         124.4111  154.2468  149.0730 H       1  UNL11111    0.0462
     32 H         124.4644  155.7655  148.1506 H       1  UNL11111    0.0462
     33 H         124.3293  152.1935  145.8548 H       1  UNL11111    0.0462
     34 H         124.3350  152.0076  147.6182 H       1  UNL11111    0.0462
     35 H         121.2567  155.3918  145.4232 H       1  UNL11111    0.0502
     36 H         120.9740  154.1102  144.2607 H       1  UNL11111    0.0502
     37 H         126.6947  154.2334  148.5904 H       1  UNL11111    0.0342
     38 H         126.5001  155.1995  147.1254 H       1  UNL11111    0.0342
     39 H         126.3796  153.3337  145.8352 H       1  UNL11111    0.0342
     40 H         126.6357  152.3112  147.2523 H       1  UNL11111    0.0342
     41 H         119.7828  154.6877  147.2286 H       1  UNL11111    0.0446
     42 H         119.7217  153.0276  147.7882 H       1  UNL11111    0.0446
     43 H         123.4127  153.5022  144.3425 H       1  UNL11111    0.0891
     44 H         123.1683  155.1937  143.9548 H       1  UNL11111    0.0891
     45 H         118.8453  153.9637  144.9911 H       1  UNL11111    0.0605
     46 H         118.8240  152.3119  145.5517 H       1  UNL11111    0.0605
     47 H         121.3579  152.0182  143.8774 H       1  UNL11111    0.1002
     48 H         121.5925  149.5930  143.5864 H       1  UNL11111    0.0906
     49 H         121.8041  149.2019  147.8462 H       1  UNL11111    0.1371
     50 H         117.6465  155.1950  147.6721 H       1  UNL11111    0.0805
     51 H         116.0019  154.8232  147.2359 H       1  UNL11111    0.0805
     52 H         121.8234  148.1250  145.5929 H       1  UNL11111    0.0980
     53 H         118.1171  158.5547  144.0146 H       1  UNL11111    0.1153
     54 H         116.1697  157.4200  142.6858 H       1  UNL11111    0.1125
     55 H         120.1488  158.5933  147.2087 H       1  UNL11111    0.1070
     56 H         118.7857  159.3091  146.3393 H       1  UNL11111    0.1070
     57 H         120.0988  158.4490  145.4469 H       1  UNL11111    0.1070
@<TRIPOS>BOND
     1     1    23   ar
     2     1    26   ar
     3     2     6    1
     4     2    15    1
     5     3    24    1
     6     3    27    1
     7     4    16   ar
     8     4    20   ar
     9     5    17    1
    10     5    21    1
    11     6     8    1
    12     6     9    1
    13     6    10    1
    14     7     8    1
    15     7    11    1
    16     7    14    1
    17     7    16    1
    18     9    12    1
    19    10    13    1
    20    11    15    1
    21    12    13    1
    22    14    17    1
    23    16    18   ar
    24    18    19   ar
    25    19    22   ar
    26    20    22   ar
    27    21    23    1
    28    23    24   ar
    29    24    25   ar
    30    25    26   ar
    31     5    28    1
    32     8    29    1
    33     8    30    1
    34     9    31    1
    35     9    32    1
    36    10    33    1
    37    10    34    1
    38    11    35    1
    39    11    36    1
    40    12    37    1
    41    12    38    1
    42    13    39    1
    43    13    40    1
    44    14    41    1
    45    14    42    1
    46    15    43    1
    47    15    44    1
    48    17    45    1
    49    17    46    1
    50    18    47    1
    51    19    48    1
    52    20    49    1
    53    21    50    1
    54    21    51    1
    55    22    52    1
    56    25    53    1
    57    26    54    1
    58    27    55    1
    59    27    56    1
    60    27    57    1
@<TRIPOS>MOLECULE
66553195
 57 60 0 0 0
SMALL
GASTEIGER

@<TRIPOS>ATOM
      1 S         116.1163  155.9115  144.0479 S.2     1  UNL11111   -0.1269
      2 O         123.9966  154.7855  145.7710 O.3     1  UNL11111   -0.4593
      3 O         119.2897  157.3048  145.7491 O.3     1  UNL11111   -0.5783
      4 N         121.5430  151.2565  147.2478 N.ar    1  UNL11111   -0.3349
      5 N         117.4749  153.8745  146.3785 N.3     1  UNL11111   -0.3404
      6 C         123.8642  154.0154  146.9734 C.3     1  UNL11111    0.0110
      7 C         121.3893  153.5272  146.3257 C.3     1  UNL11111    0.0128
      8 C         122.3979  153.9811  147.4280 C.3     1  UNL11111   -0.0152
      9 C         124.7408  154.7018  148.0346 C.3     1  UNL11111   -0.0341
     10 C         124.5648  152.6555  146.8608 C.3     1  UNL11111   -0.0341
     11 C         121.7029  154.3842  145.0726 C.3     1  UNL11111   -0.0192
     12 C         126.1708  154.2936  147.6855 C.3     1  UNL11111   -0.0539
     13 C         126.0547  152.9917  146.8973 C.3     1  UNL11111   -0.0539
     14 C         119.9509  153.8582  146.8507 C.3     1  UNL11111   -0.0315
     15 C         123.1779  154.3469  144.6947 C.3     1  UNL11111    0.0064
     16 C         121.4736  152.0078  146.1179 C.ar    1  UNL11111   -0.0010
     17 C         118.8095  153.5374  145.8724 C.3     1  UNL11111   -0.0284
     18 C         121.4207  151.4027  144.8610 C.ar    1  UNL11111   -0.0514
     19 C         121.4700  150.0123  144.7638 C.ar    1  UNL11111   -0.0708
     20 C         121.5895  149.9113  147.1275 C.ar    1  UNL11111   -0.0127
     21 C         117.2206  155.3115  146.5401 C.3     1  UNL11111    0.0161
     22 C         121.5594  149.2484  145.9172 C.ar    1  UNL11111   -0.0571
     23 C         117.3164  156.0958  145.2623 C.ar    1  UNL11111    0.0248
     24 C         118.2731  157.0237  144.8930 C.ar    1  UNL11111    0.0564
     25 C         118.0255  157.5641  143.5955 C.ar    1  UNL11111   -0.0135
     26 C         116.8861  157.0410  143.0252 C.ar    1  UNL11111   -0.0275
     27 C         120.2212  158.2700  145.2798 C.3     1  UNL11111    0.0304
     28 H         117.3403  153.4212  147.2810 H       1  UNL11111    0.1338
     29 H         122.1284  155.0086  147.7157 H       1  UNL11111    0.0529
     30 H         122.2943  153.3838  148.3428 H       1  UNL11111    0.0529
     31 H         124.4956  154.3373  149.0400 H       1  UNL11111    0.0462
     32 H         124.6375  155.7922  148.0287 H       1  UNL11111    0.0462
     33 H         124.3328  152.0994  145.9500 H       1  UNL11111    0.0462
     34 H         124.3183  152.0217  147.7214 H       1  UNL11111    0.0462
     35 H         121.4490  155.4283  145.2986 H       1  UNL11111    0.0502
     36 H         121.0959  154.1043  144.2065 H       1  UNL11111    0.0502
     37 H         126.7776  154.1701  148.5883 H       1  UNL11111    0.0342
     38 H         126.6522  155.0618  147.0696 H       1  UNL11111    0.0342
     39 H         126.4374  153.1380  145.8804 H       1  UNL11111    0.0342
     40 H         126.6355  152.1838  147.3535 H       1  UNL11111    0.0342
     41 H         119.9195  154.9245  147.1038 H       1  UNL11111    0.0446
     42 H         119.7684  153.3201  147.7915 H       1  UNL11111    0.0446
     43 H         123.4969  153.3583  144.3534 H       1  UNL11111    0.0891
     44 H         123.3507  155.0338  143.8592 H       1  UNL11111    0.0891
     45 H         118.9730  154.0109  144.9003 H       1  UNL11111    0.0605
     46 H         118.7970  152.4597  145.6773 H       1  UNL11111    0.0605
     47 H         121.3300  151.9777  143.9472 H       1  UNL11111    0.1002
     48 H         121.4308  149.5313  143.7904 H       1  UNL11111    0.0906
     49 H         121.6517  149.3656  148.0644 H       1  UNL11111    0.1371
     50 H         117.8769  155.7353  147.3082 H       1  UNL11111    0.0805
     51 H         116.2044  155.4260  146.9392 H       1  UNL11111    0.0805
     52 H         121.5968  148.1663  145.8745 H       1  UNL11111    0.0980
     53 H         118.6362  158.3000  143.0899 H       1  UNL11111    0.1153
     54 H         116.4642  157.2710  142.0567 H       1  UNL11111    0.1125
     55 H         120.9831  158.4034  146.0538 H       1  UNL11111    0.1070
     56 H         119.7381  159.2391  145.1155 H       1  UNL11111    0.1070
     57 H         120.7263  157.9235  144.3717 H       1  UNL11111    0.1070
@<TRIPOS>BOND
     1     1    23   ar
     2     1    26   ar
     3     2     6    1
     4     2    15    1
     5     3    24    1
     6     3    27    1
     7     4    16   ar
     8     4    20   ar
     9     5    17    1
    10     5    21    1
    11     6     8    1
    12     6     9    1
    13     6    10    1
    14     7     8    1
    15     7    11    1
    16     7    14    1
    17     7    16    1
    18     9    12    1
    19    10    13    1
    20    11    15    1
    21    12    13    1
    22    14    17    1
    23    16    18   ar
    24    18    19   ar
    25    19    22   ar
    26    20    22   ar
    27    21    23    1
    28    23    24   ar
    29    24    25   ar
    30    25    26   ar
    31     5    28    1
    32     8    29    1
    33     8    30    1
    34     9    31    1
    35     9    32    1
    36    10    33    1
    37    10    34    1
    38    11    35    1
    39    11    36    1
    40    12    37    1
    41    12    38    1
    42    13    39    1
    43    13    40    1
    44    14    41    1
    45    14    42    1
    46    15    43    1
    47    15    44    1
    48    17    45    1
    49    17    46    1
    50    18    47    1
    51    19    48    1
    52    20    49    1
    53    21    50    1
    54    21    51    1
    55    22    52    1
    56    25    53    1
    57    26    54    1
    58    27    55    1
    59    27    56    1
    60    27    57    1
