@<TRIPOS>MOLECULE
*****
 73 74 0 0 0
SMALL
GASTEIGER

@<TRIPOS>ATOM
      1 CB        122.8257  154.1015  143.2325 C.3     2  ALA222     -0.0247
      2 CA        122.5763  152.6407  143.5832 C.3     2  ALA222      0.0919
      3 N         123.7376  152.1166  144.3171 N.am    2  ALA222     -0.2909
      4 C         124.0624  150.7827  144.2494 C.2     1  TYR111      0.1616
      5 O         123.6750  150.0533  143.3395 O.2     1  TYR111     -0.3695
      6 CA        125.1144  150.2699  145.2497 C.3     1  TYR111      0.0764
      7 N         126.4674  150.8003  144.8658 N.4     1  TYR111      0.4482
      8 CB        124.8023  150.4783  146.7448 C.3     1  TYR111     -0.0025
      9 CG        125.0073  151.8666  147.3072 C.3     1  TYR111     -0.0638
     10 CD1       123.9024  152.7013  147.5440 C.3     1  TYR111     -0.0644
     11 CE1       124.0761  154.0091  148.0005 C.3     1  TYR111     -0.0314
     12 CZ        125.3582  154.4753  148.2548 C.3     1  TYR111      0.0326
     13 OH        125.5829  155.7442  148.6924 O.2     1  TYR111     -0.5649
     14 CE2       126.4618  153.6496  148.0807 C.3     1  TYR111     -0.0314
     15 CD2       126.2885  152.3432  147.6211 C.3     1  TYR111     -0.0644
     16 C         121.3511  152.4353  144.5119 C.2     2  ALA222      0.1666
     17 O         121.3885  151.6558  145.4675 O.2     2  ALA222     -0.3759
     18 N         120.2171  153.1398  144.1887 N.am    3  GLY333     -0.2953
     19 CA        119.0599  153.1198  145.0675 C.3     3  GLY333      0.0907
     20 C         119.2561  154.0671  146.2746 C.2     3  GLY333      0.1665
     21 O         120.3305  154.6518  146.4522 O.2     3  GLY333     -0.3759
     22 N         118.1781  154.2355  147.1517 N.am    4  PHE444     -0.2989
     23 C15       118.3897  155.0569  148.3426 C.3     1  <1>        -0.0042
     24 CA        116.8565  153.5600  146.9495 C.3     4  PHE444      0.1004
     25 CB        116.0199  153.3996  148.2373 C.3     4  PHE444      0.0070
     26 CG        114.9237  152.3659  148.1252 C.3     4  PHE444     -0.0708
     27 CD1       115.2161  151.0033  148.2821 C.3     4  PHE444     -0.0816
     28 CE1       114.2064  150.0461  148.1705 C.3     4  PHE444     -0.0859
     29 CZ        112.8978  150.4398  147.8995 C.3     4  PHE444     -0.0868
     30 CE2       112.5970  151.7906  147.7402 C.3     4  PHE444     -0.0859
     31 CD2       113.6040  152.7503  147.8528 C.3     4  PHE444     -0.0816
     32 C         116.0355  154.3337  145.8853 C.2     4  PHE444      0.1663
     33 O         115.1934  153.7851  145.1803 O.2     4  PHE444     -0.3756
     34 N         116.2245  155.6976  145.8594 N.am    5  GLY555     -0.3159
     35 CA        115.4810  156.5647  144.9572 C.3     5  GLY555      0.0147
     36 C         114.0514  156.8137  145.4368 C.3     5  GLY555      0.0148
     37 O         114.0719  157.4313  146.7229 O.3     5  GLY555     -0.4536
     38 H         123.7801  154.2177  142.7073 H       2  ALA222      0.0411
     39 H         122.8617  154.7254  144.1328 H       2  ALA222      0.0411
     40 H         122.0402  154.4983  142.5822 H       2  ALA222      0.0411
     41 H         122.4122  152.0524  142.6742 H       2  ALA222      0.1182
     42 H         124.0157  152.6803  145.1097 H       2  ALA222      0.1970
     43 H         125.1831  149.1870  145.0832 H       1  TYR111      0.1254
     44 H         126.5027  151.8240  144.9607 H       1  TYR111      0.1471
     45 H         126.6489  150.5823  143.8753 H       1  TYR111      0.1471
     46 H         127.2201  150.3851  145.4247 H       1  TYR111      0.1471
     47 H         125.4276  149.7918  147.3323 H       1  TYR111      0.0668
     48 H         123.7687  150.1616  146.9371 H       1  TYR111      0.0668
     49 H         122.8844  152.3481  147.3735 H       1  TYR111      0.0929
     50 H         123.2026  154.6386  148.1543 H       1  TYR111      0.1102
     51 H         124.7304  156.1799  148.8650 H       1  TYR111      0.3342
     52 H         127.4534  154.0236  148.3273 H       1  TYR111      0.1102
     53 H         127.1672  151.7075  147.5479 H       1  TYR111      0.0929
     54 H         120.1974  153.7674  143.3968 H       3  GLY333      0.1936
     55 H         118.9026  152.0993  145.4290 H       3  GLY333      0.1134
     56 H         118.2043  153.4457  144.4722 H       3  GLY333      0.1134
     57 H20       119.2776  155.6878  148.2503 H       1  <1>         0.0663
     58 H21       118.5302  154.3958  149.2023 H       1  <1>         0.0663
     59 H22       117.5269  155.7066  148.5092 H       1  <1>         0.0663
     60 H         117.0593  152.5713  146.5249 H       4  PHE444      0.1230
     61 H         115.5805  154.3601  148.5367 H       4  PHE444      0.0616
     62 H         116.6643  153.0920  149.0707 H       4  PHE444      0.0616
     63 H         116.2301  150.6747  148.4973 H       4  PHE444      0.0892
     64 H         114.4385  148.9915  148.2950 H       4  PHE444      0.0876
     65 H         112.1115  149.6944  147.8101 H       4  PHE444      0.0874
     66 H         111.5769  152.0973  147.5228 H       4  PHE444      0.0876
     67 H         113.3456  153.7976  147.7140 H       4  PHE444      0.0892
     68 H         116.9731  156.1029  146.4065 H       5  GLY555      0.1879
     69 H         115.4740  156.1144  143.9594 H       5  GLY555      0.0813
     70 H         116.0330  157.5092  144.9157 H       5  GLY555      0.0813
     71 H         113.4741  155.8868  145.5088 H       5  GLY555      0.0937
     72 H         113.5351  157.4879  144.7472 H       5  GLY555      0.0937
     73 H         114.4204  156.7641  147.3378 H       5  GLY555      0.2346
@<TRIPOS>UNITY_ATOM_ATTR
7 1
charge 1
@<TRIPOS>BOND
     1     2     1    1
     2     2     3    1
     3     3     4   am
     4     4     5    2
     5     4     6    1
     6     6     7    1
     7     6     8    1
     8     8     9    1
     9     9    10   ar
    10    10    11   ar
    11    11    12   ar
    12    12    13    1
    13    12    14   ar
    14    14    15   ar
    15     2    16    1
    16    16    17    2
    17    16    18   am
    18    18    19    1
    19    19    20    1
    20    20    21    2
    21    20    22   am
    22    22    23    1
    23    22    24    1
    24    24    25    1
    25    25    26    1
    26    26    27   ar
    27    27    28   ar
    28    28    29   ar
    29    29    30   ar
    30    30    31   ar
    31    24    32    1
    32    32    33    2
    33    32    34   am
    34    34    35    1
    35    35    36    1
    36    36    37    1
    37    15     9   ar
    38    31    26   ar
    39     1    38    1
    40     1    39    1
    41     1    40    1
    42     2    41    1
    43     3    42    1
    44     6    43    1
    45     7    44    1
    46     7    45    1
    47     7    46    1
    48     8    47    1
    49     8    48    1
    50    10    49    1
    51    11    50    1
    52    13    51    1
    53    14    52    1
    54    15    53    1
    55    18    54    1
    56    19    55    1
    57    19    56    1
    58    23    57    1
    59    23    58    1
    60    23    59    1
    61    24    60    1
    62    25    61    1
    63    25    62    1
    64    27    63    1
    65    28    64    1
    66    29    65    1
    67    30    66    1
    68    31    67    1
    69    34    68    1
    70    35    69    1
    71    35    70    1
    72    36    71    1
    73    36    72    1
    74    37    73    1
