@<TRIPOS>MOLECULE
5284543
 46 50 0 0 0
SMALL
GASTEIGER

@<TRIPOS>ATOM
      1 O         121.3705  154.1372  147.7337 O.3     1  UNL111     -0.5455
      2 O         121.1874  155.4726  145.3316 O.3     1  UNL111     -0.4416
      3 O         123.6172  152.5630  147.0414 O.3     1  UNL111     -0.5684
      4 N         116.7423  151.9956  146.8795 N.4     1  UNL111      0.4269
      5 C         119.0861  153.6968  147.1025 C.3     1  UNL111      0.0474
      6 C         117.9274  154.0417  146.1649 C.3     1  UNL111     -0.0179
      7 C         120.0943  154.8072  147.4584 C.3     1  UNL111      0.0841
      8 C         117.3487  152.7019  145.6417 C.3     1  UNL111     -0.0256
      9 C         118.5123  152.9883  148.3521 C.3     1  UNL111     -0.0273
     10 C         120.0525  152.7746  146.4525 C.ar    1  UNL111      0.0218
     11 C         118.3066  155.0369  145.0663 C.3     1  UNL111     -0.0398
     12 C         120.2965  155.8953  146.3664 C.3     1  UNL111      0.0437
     13 C         118.3850  151.8019  144.8942 C.3     1  UNL111     -0.0225
     14 C         118.9816  156.2693  145.6829 C.3     1  UNL111     -0.0235
     15 C         117.7226  151.7256  148.0025 C.3     1  UNL111     -0.0369
     16 C         119.7673  151.8335  145.4852 C.ar    1  UNL111     -0.0430
     17 C         121.3298  153.0151  146.9265 C.ar    1  UNL111      0.1054
     18 C         115.9296  150.7721  146.5448 C.3     1  UNL111     -0.0445
     19 C         120.8323  151.0469  145.0490 C.ar    1  UNL111     -0.0571
     20 C         122.4012  152.2458  146.5169 C.ar    1  UNL111      0.0926
     21 C         122.1330  151.2389  145.5766 C.ar    1  UNL111     -0.0130
     22 C         124.7340  151.8062  146.5916 C.3     1  UNL111      0.0331
     23 H         122.0287  155.2290  145.7664 H       1  UNL111      0.2393
     24 H         116.0553  152.6594  147.2621 H       1  UNL111      0.1324
     25 H         117.1474  154.5477  146.7544 H       1  UNL111      0.0619
     26 H         119.7730  155.3106  148.3792 H       1  UNL111      0.1393
     27 H         116.4938  152.8963  144.9829 H       1  UNL111      0.0835
     28 H         117.8533  153.6856  148.8867 H       1  UNL111      0.0541
     29 H         119.3043  152.7167  149.0621 H       1  UNL111      0.0541
     30 H         117.4014  155.3509  144.5328 H       1  UNL111      0.0396
     31 H         118.9642  154.5796  144.3188 H       1  UNL111      0.0396
     32 H         120.7505  156.7829  146.8211 H       1  UNL111      0.1114
     33 H         118.4680  152.1792  143.8666 H       1  UNL111      0.0613
     34 H         118.0365  150.7677  144.8219 H       1  UNL111      0.0613
     35 H         118.3060  156.7463  146.4028 H       1  UNL111      0.0481
     36 H         119.1751  156.9927  144.8817 H       1  UNL111      0.0481
     37 H         118.3696  150.8986  147.6937 H       1  UNL111      0.0738
     38 H         117.1356  151.3969  148.8673 H       1  UNL111      0.0738
     39 H         116.6021  149.9578  146.2676 H       1  UNL111      0.0667
     40 H         115.2516  151.0253  145.7261 H       1  UNL111      0.0667
     41 H         115.3534  150.5032  147.4344 H       1  UNL111      0.0667
     42 H         120.6871  150.2932  144.2768 H       1  UNL111      0.0939
     43 H         122.9274  150.6024  145.1952 H       1  UNL111      0.1142
     44 H         125.6240  152.1879  147.1009 H       1  UNL111      0.1074
     45 H         124.8865  151.9307  145.5144 H       1  UNL111      0.1074
     46 H         124.6256  150.7491  146.8558 H       1  UNL111      0.1074
@<TRIPOS>UNITY_ATOM_ATTR
4 1
charge 1
@<TRIPOS>BOND
     1     1     7    1
     2     1    17    1
     3     2    12    1
     4     3    20    1
     5     3    22    1
     6     4     8    1
     7     4    15    1
     8     4    18    1
     9     5     6    1
    10     5     7    1
    11     5     9    1
    12     5    10    1
    13     6     8    1
    14     6    11    1
    15     7    12    1
    16     8    13    1
    17     9    15    1
    18    10    16   ar
    19    10    17   ar
    20    11    14    1
    21    12    14    1
    22    13    16    1
    23    16    19   ar
    24    17    20   ar
    25    19    21   ar
    26    20    21   ar
    27     2    23    1
    28     4    24    1
    29     6    25    1
    30     7    26    1
    31     8    27    1
    32     9    28    1
    33     9    29    1
    34    11    30    1
    35    11    31    1
    36    12    32    1
    37    13    33    1
    38    13    34    1
    39    14    35    1
    40    14    36    1
    41    15    37    1
    42    15    38    1
    43    18    39    1
    44    18    40    1
    45    18    41    1
    46    19    42    1
    47    21    43    1
    48    22    44    1
    49    22    45    1
    50    22    46    1
@<TRIPOS>MOLECULE
101625339
 65 70 0 0 0
SMALL
GASTEIGER

@<TRIPOS>ATOM
      1 O         121.0645  153.9424  148.6071 O.2     1  UNL111     -0.5450
      2 O         119.2095  153.0851  146.7518 O.3     1  UNL111     -0.4002
      3 O         120.8404  156.6874  147.9280 O.2     1  UNL111     -0.5684
      4 O         117.1876  151.9933  146.3616 O.3     1  UNL111     -0.3869
      5 O         118.0108  155.5610  146.0570 O.3     1  UNL111     -0.4257
      6 O         115.5266  155.4014  144.6814 O.3     1  UNL111     -0.4316
      7 O         113.7919  153.3356  145.6872 O.3     1  UNL111     -0.4315
      8 O         115.0471  149.7810  146.8205 O.co2   1  UNL111     -0.5546
      9 O         115.3320  150.3876  144.6338 O.co2   1  UNL111     -0.5546
     10 N         124.6638  151.2593  146.0647 N.4     1  UNL111      0.4269
     11 C         122.2721  152.2754  147.3617 C.3     1  UNL111      0.0479
     12 C         122.2226  151.1145  146.3671 C.3     1  UNL111     -0.0179
     13 C         121.0554  152.5103  148.2797 C.3     1  UNL111      0.0874
     14 C         123.3161  151.3712  145.3045 C.3     1  UNL111     -0.0256
     15 C         123.6037  152.1863  148.1425 C.3     1  UNL111     -0.0272
     16 C         122.2326  153.5908  146.6718 C.3     1  UNL111      0.0218
     17 C         120.8318  150.8589  145.7934 C.3     1  UNL111     -0.0393
     18 C         119.6775  152.0889  147.6786 C.3     1  UNL111      0.0600
     19 C         123.1738  152.7293  144.5454 C.3     1  UNL111     -0.0225
     20 C         119.8241  150.7468  146.9426 C.3     1  UNL111     -0.0201
     21 C         124.8243  152.2237  147.2216 C.3     1  UNL111     -0.0369
     22 C         122.6977  153.8685  145.4033 C.3     1  UNL111     -0.0430
     23 C         121.6019  154.5255  147.4748 C.3     1  UNL111      0.1055
     24 C         125.8693  151.2559  145.1666 C.3     1  UNL111     -0.0445
     25 C         122.5827  155.1894  144.9736 C.3     1  UNL111     -0.0571
     26 C         121.4795  155.8411  147.0739 C.3     1  UNL111      0.0926
     27 C         121.9973  156.1701  145.8112 C.3     1  UNL111     -0.0130
     28 C         117.7763  153.2086  146.7471 C.3     1  UNL111      0.1169
     29 C         117.4151  154.2912  145.7240 C.3     1  UNL111      0.0882
     30 C         115.8992  154.4424  145.6911 C.3     1  UNL111      0.0765
     31 C         115.7412  152.0093  146.3556 C.3     1  UNL111      0.1059
     32 C         115.1889  153.1044  145.4355 C.3     1  UNL111      0.0783
     33 C         120.4502  157.9528  147.4094 C.3     1  UNL111      0.0331
     34 C         115.2957  150.5976  145.8818 C.2     1  UNL111      0.0691
     35 H         118.9094  155.3341  146.3718 H       1  UNL111      0.2441
     36 H         116.1385  156.1507  144.8180 H       1  UNL111      0.2418
     37 H         113.5235  153.9908  145.0164 H       1  UNL111      0.2419
     38 H         124.6512  150.3198  146.4845 H       1  UNL111      0.1324
     39 H         122.4799  150.1902  146.9075 H       1  UNL111      0.0619
     40 H         121.1949  151.9549  149.2163 H       1  UNL111      0.1399
     41 H         123.3354  150.5492  144.5789 H       1  UNL111      0.0835
     42 H         123.6185  151.2520  148.7197 H       1  UNL111      0.0541
     43 H         123.6979  152.9962  148.8775 H       1  UNL111      0.0541
     44 H         120.8406  149.9201  145.2265 H       1  UNL111      0.0396
     45 H         120.5300  151.6433  145.0908 H       1  UNL111      0.0396
     46 H         118.9660  152.0004  148.5092 H       1  UNL111      0.1165
     47 H         122.4247  152.5888  143.7553 H       1  UNL111      0.0613
     48 H         124.1076  153.0065  144.0477 H       1  UNL111      0.0613
     49 H         120.1423  149.9700  147.6488 H       1  UNL111      0.0487
     50 H         118.8728  150.4109  146.5237 H       1  UNL111      0.0487
     51 H         125.0057  153.2202  146.8066 H       1  UNL111      0.0738
     52 H         125.7198  151.9151  147.7724 H       1  UNL111      0.0738
     53 H         126.0395  152.2659  144.7878 H       1  UNL111      0.0667
     54 H         125.6892  150.5502  144.3521 H       1  UNL111      0.0667
     55 H         126.7254  150.9250  145.7612 H       1  UNL111      0.0667
     56 H         122.9119  155.4802  143.9776 H       1  UNL111      0.0939
     57 H         121.9279  157.1841  145.4262 H       1  UNL111      0.1142
     58 H         117.4572  153.5061  147.7547 H       1  UNL111      0.1704
     59 H         117.7917  154.0263  144.7284 H       1  UNL111      0.1333
     60 H         115.5477  154.8753  146.6370 H       1  UNL111      0.1245
     61 H         115.3878  152.1584  147.3844 H       1  UNL111      0.1358
     62 H         115.2916  152.8405  144.3766 H       1  UNL111      0.1247
     63 H         119.8443  158.4539  148.1704 H       1  UNL111      0.1074
     64 H         119.8344  157.8449  146.5103 H       1  UNL111      0.1074
     65 H         121.3261  158.5794  147.2132 H       1  UNL111      0.1074
@<TRIPOS>UNITY_ATOM_ATTR
8 1
charge -1
10 1
charge 1
@<TRIPOS>BOND
     1     1    13    1
     2     1    23    1
     3     2    18    1
     4     2    28    1
     5     3    26    1
     6     3    33    1
     7     4    28    1
     8     4    31    1
     9     5    29    1
    10     6    30    1
    11     7    32    1
    12     8    34   ar
    13     9    34   ar
    14    10    14    1
    15    10    21    1
    16    10    24    1
    17    11    12    1
    18    11    13    1
    19    11    15    1
    20    11    16    1
    21    12    14    1
    22    12    17    1
    23    13    18    1
    24    14    19    1
    25    15    21    1
    26    16    22   ar
    27    16    23   ar
    28    17    20    1
    29    18    20    1
    30    19    22    1
    31    22    25   ar
    32    23    26   ar
    33    25    27   ar
    34    26    27   ar
    35    28    29    1
    36    29    30    1
    37    30    32    1
    38    31    32    1
    39    31    34    1
    40     5    35    1
    41     6    36    1
    42     7    37    1
    43    10    38    1
    44    12    39    1
    45    13    40    1
    46    14    41    1
    47    15    42    1
    48    15    43    1
    49    17    44    1
    50    17    45    1
    51    18    46    1
    52    19    47    1
    53    19    48    1
    54    20    49    1
    55    20    50    1
    56    21    51    1
    57    21    52    1
    58    24    53    1
    59    24    54    1
    60    24    55    1
    61    25    56    1
    62    27    57    1
    63    28    58    1
    64    29    59    1
    65    30    60    1
    66    31    61    1
    67    32    62    1
    68    33    63    1
    69    33    64    1
    70    33    65    1
@<TRIPOS>MOLECULE
129318279
 46 50 0 0 0
SMALL
GASTEIGER

@<TRIPOS>ATOM
      1 O         121.5442  152.0712  145.0734 O.2     1  UNL1111    -0.5455
      2 O         115.8275  153.3116  145.6055 O.co2   1  UNL1111    -0.7568
      3 O         121.5032  150.6350  147.3937 O.3     1  UNL1111    -0.4416
      4 O         123.7842  153.6770  145.7274 O.2     1  UNL1111    -0.5684
      5 N         116.8364  154.1355  146.0766 N.3     1  UNL1111     0.4017
      6 C         119.2628  152.4775  145.7659 C.3     1  UNL1111     0.0471
      7 C         118.1504  152.1033  146.7442 C.3     1  UNL1111    -0.0207
      8 C         117.5454  153.4397  147.2656 C.3     1  UNL1111    -0.0440
      9 C         120.2727  151.3876  145.3643 C.3     1  UNL1111     0.0840
     10 C         118.6307  153.1841  144.5426 C.3     1  UNL1111    -0.0300
     11 C         120.2370  153.4058  146.3966 C.3     1  UNL1111     0.0218
     12 C         118.6006  151.1289  147.8344 C.3     1  UNL1111    -0.0400
     13 C         117.8053  154.4118  144.9413 C.3     1  UNL1111    -0.0554
     14 C         118.5928  154.3291  148.0099 C.3     1  UNL1111    -0.0253
     15 C         120.5160  150.2721  146.4213 C.3     1  UNL1111     0.0437
     16 C         119.2487  149.8979  147.1889 C.3     1  UNL1111    -0.0235
     17 C         119.9626  154.3295  147.3842 C.3     1  UNL1111    -0.0432
     18 C         121.5042  153.1879  145.8890 C.3     1  UNL1111     0.1054
     19 C         116.1721  155.4185  146.4935 C.3     1  UNL1111    -0.0630
     20 C         121.0253  155.1272  147.8039 C.3     1  UNL1111    -0.0571
     21 C         122.5736  153.9701  146.2812 C.3     1  UNL1111     0.0926
     22 C         122.3143  154.9623  147.2410 C.3     1  UNL1111    -0.0130
     23 C         124.8813  154.4957  146.1083 C.3     1  UNL1111     0.0331
     24 H         122.2623  150.9916  146.8926 H       1  UNL1111     0.2393
     25 H         117.3791  151.5588  146.1812 H       1  UNL1111     0.0617
     26 H         116.7208  153.2216  147.9575 H       1  UNL1111     0.0802
     27 H         119.9356  150.9024  144.4393 H       1  UNL1111     0.1393
     28 H         117.9820  152.4712  144.0171 H       1  UNL1111     0.0539
     29 H         119.3932  153.4964  143.8174 H       1  UNL1111     0.0539
     30 H         117.7304  150.8129  148.4219 H       1  UNL1111     0.0395
     31 H         119.2991  151.5971  148.5363 H       1  UNL1111     0.0395
     32 H         118.4429  155.2426  145.2595 H       1  UNL1111     0.0704
     33 H         117.1973  154.7554  144.0960 H       1  UNL1111     0.0704
     34 H         118.7069  153.9264  149.0250 H       1  UNL1111     0.0610
     35 H         118.2457  155.3588  148.1227 H       1  UNL1111     0.0610
     36 H         120.9135  149.3867  145.9121 H       1  UNL1111     0.1114
     37 H         118.5339  149.4121  146.5140 H       1  UNL1111     0.0481
     38 H         119.4937  149.1804  147.9812 H       1  UNL1111     0.0481
     39 H         115.5597  155.2053  147.3732 H       1  UNL1111     0.0633
     40 H         115.5434  155.7467  145.6601 H       1  UNL1111     0.0633
     41 H         116.9352  156.1694  146.7027 H       1  UNL1111     0.0633
     42 H         120.8812  155.8686  148.5870 H       1  UNL1111     0.0939
     43 H         123.1065  155.6066  147.6109 H       1  UNL1111     0.1142
     44 H         125.7631  154.1500  145.5604 H       1  UNL1111     0.1074
     45 H         125.0940  154.3970  147.1778 H       1  UNL1111     0.1074
     46 H         124.7082  155.5419  145.8346 H       1  UNL1111     0.1074
@<TRIPOS>UNITY_ATOM_ATTR
2 1
charge -1
5 1
charge 1
@<TRIPOS>BOND
     1     1     9    1
     2     1    18    1
     3     2     5    1
     4     3    15    1
     5     4    21    1
     6     4    23    1
     7     5     8    1
     8     5    13    1
     9     5    19    1
    10     6     7    1
    11     6     9    1
    12     6    10    1
    13     6    11    1
    14     7     8    1
    15     7    12    1
    16     8    14    1
    17     9    15    1
    18    10    13    1
    19    11    17   ar
    20    11    18   ar
    21    12    16    1
    22    14    17    1
    23    15    16    1
    24    17    20   ar
    25    18    21   ar
    26    20    22   ar
    27    21    22   ar
    28     3    24    1
    29     7    25    1
    30     8    26    1
    31     9    27    1
    32    10    28    1
    33    10    29    1
    34    12    30    1
    35    12    31    1
    36    13    32    1
    37    13    33    1
    38    14    34    1
    39    14    35    1
    40    15    36    1
    41    16    37    1
    42    16    38    1
    43    19    39    1
    44    19    40    1
    45    19    41    1
    46    20    42    1
    47    22    43    1
    48    23    44    1
    49    23    45    1
    50    23    46    1
@<TRIPOS>MOLECULE
522741
 57 62 0 0 0
SMALL
GASTEIGER

@<TRIPOS>ATOM
      1 O         120.2108  154.2066  145.3215 O.2     1  UNL111     -0.5411
      2 O         117.6786  152.8491  146.4322 O.3     1  UNL111     -0.4994
      3 O         121.3328  157.0016  145.8657 O.2     1  UNL111     -0.5684
      4 O         116.9291  153.7351  148.4083 O.2     1  UNL111     -0.3205
      5 N         123.6597  150.4062  145.9663 N.4     1  UNL111      0.4269
      6 N         113.9934  152.7884  144.7269 N.pl3   1  UNL111     -0.3003
      7 C         121.3687  152.1920  145.9414 C.3     1  UNL111      0.0510
      8 C         121.5055  151.0741  146.9762 C.3     1  UNL111     -0.0167
      9 C         119.9763  152.8077  145.7141 C.3     1  UNL111      0.0986
     10 C         123.0177  150.9068  147.2796 C.3     1  UNL111     -0.0254
     11 C         122.0293  151.7407  144.6182 C.3     1  UNL111     -0.0266
     12 C         122.0468  153.4255  146.4231 C.3     1  UNL111      0.0226
     13 C         120.6415  151.3126  148.2172 C.3     1  UNL111     -0.0362
     14 C         119.0323  152.8003  146.9432 C.3     1  UNL111      0.0961
     15 C         123.7066  152.2003  147.8174 C.3     1  UNL111     -0.0225
     16 C         119.1910  151.5405  147.8006 C.3     1  UNL111     -0.0087
     17 C         123.4949  151.3411  144.7872 C.3     1  UNL111     -0.0368
     18 C         123.1808  153.4744  147.2143 C.3     1  UNL111     -0.0429
     19 C         121.3694  154.5502  145.9814 C.3     1  UNL111      0.1065
     20 C         125.0889  149.9523  146.1212 C.3     1  UNL111     -0.0445
     21 C         123.7080  154.7363  147.4764 C.3     1  UNL111     -0.0571
     22 C         121.8706  155.8085  146.2428 C.3     1  UNL111      0.0927
     23 C         123.0713  155.8875  146.9675 C.3     1  UNL111     -0.0130
     24 C         116.7316  153.3338  147.2734 C.2     1  UNL111      0.2687
     25 C         115.3936  153.2563  146.6484 C.3     1  UNL111      0.0996
     26 C         119.9090  157.0417  145.8315 C.3     1  UNL111      0.0331
     27 C         114.2572  153.5385  147.4103 C.3     1  UNL111     -0.0263
     28 C         115.2080  152.8947  145.3201 C.3     1  UNL111      0.0209
     29 C         112.9960  153.4404  146.8251 C.3     1  UNL111     -0.0510
     30 C         112.9150  153.0639  145.4936 C.3     1  UNL111     -0.0230
     31 H         123.1490  149.5477  145.7180 H       1  UNL111      0.1324
     32 H         121.1363  150.1388  146.5288 H       1  UNL111      0.0621
     33 H         119.4741  152.3232  144.8670 H       1  UNL111      0.1454
     34 H         123.1660  150.0898  147.9959 H       1  UNL111      0.0835
     35 H         121.9699  152.5241  143.8516 H       1  UNL111      0.0542
     36 H         121.4718  150.8827  144.2190 H       1  UNL111      0.0542
     37 H         120.9946  152.1687  148.8029 H       1  UNL111      0.0404
     38 H         120.6976  150.4370  148.8746 H       1  UNL111      0.0404
     39 H         119.2163  153.6945  147.5531 H       1  UNL111      0.1425
     40 H         124.7930  152.1550  147.6993 H       1  UNL111      0.0613
     41 H         123.5088  152.2540  148.8961 H       1  UNL111      0.0613
     42 H         118.5654  151.6208  148.6973 H       1  UNL111      0.0540
     43 H         118.8100  150.6677  147.2545 H       1  UNL111      0.0540
     44 H         123.8439  150.8022  143.8994 H       1  UNL111      0.0738
     45 H         124.1498  152.2037  144.9451 H       1  UNL111      0.0738
     46 H         125.7337  150.8255  146.2389 H       1  UNL111      0.0667
     47 H         125.3601  149.3975  145.2189 H       1  UNL111      0.0667
     48 H         125.1460  149.2948  146.9922 H       1  UNL111      0.0667
     49 H         124.5992  154.8575  148.0895 H       1  UNL111      0.0939
     50 H         123.4942  156.8687  147.1812 H       1  UNL111      0.1142
     51 H         119.6081  158.0939  145.8412 H       1  UNL111      0.1074
     52 H         119.4675  156.5642  146.7138 H       1  UNL111      0.1074
     53 H         119.5288  156.5971  144.9076 H       1  UNL111      0.1074
     54 H         114.3477  153.8290  148.4548 H       1  UNL111      0.1017
     55 H         116.0410  152.6698  144.6609 H       1  UNL111      0.1456
     56 H         112.0969  153.6510  147.3948 H       1  UNL111      0.0990
     57 H         111.9538  152.9716  144.9944 H       1  UNL111      0.1342
@<TRIPOS>UNITY_ATOM_ATTR
5 1
charge 1
@<TRIPOS>BOND
     1     1     9    1
     2     1    19    1
     3     2    14    1
     4     2    24    1
     5     3    22    1
     6     3    26    1
     7     4    24    2
     8     5    10    1
     9     5    17    1
    10     5    20    1
    11     6    28   ar
    12     6    30   ar
    13     7     8    1
    14     7     9    1
    15     7    11    1
    16     7    12    1
    17     8    10    1
    18     8    13    1
    19     9    14    1
    20    10    15    1
    21    11    17    1
    22    12    18   ar
    23    12    19   ar
    24    13    16    1
    25    14    16    1
    26    15    18    1
    27    18    21   ar
    28    19    22   ar
    29    21    23   ar
    30    22    23   ar
    31    24    25    1
    32    25    27   ar
    33    25    28   ar
    34    27    29   ar
    35    29    30   ar
    36     5    31    1
    37     8    32    1
    38     9    33    1
    39    10    34    1
    40    11    35    1
    41    11    36    1
    42    13    37    1
    43    13    38    1
    44    14    39    1
    45    15    40    1
    46    15    41    1
    47    16    42    1
    48    16    43    1
    49    17    44    1
    50    17    45    1
    51    20    46    1
    52    20    47    1
    53    20    48    1
    54    21    49    1
    55    23    50    1
    56    26    51    1
    57    26    52    1
    58    26    53    1
    59    27    54    1
    60    28    55    1
    61    29    56    1
    62    30    57    1
@<TRIPOS>MOLECULE
91753678
 51 55 0 0 0
SMALL
GASTEIGER

@<TRIPOS>ATOM
      1 F         114.5521  153.1012  145.1009 F       1  UNL111     -0.1520
      2 F         114.0821  152.2372  147.0534 F       1  UNL111     -0.1520
      3 F         115.2368  154.0846  146.9154 F       1  UNL111     -0.1520
      4 O         120.4755  151.2565  145.6097 O.2     1  UNL111     -0.5411
      5 O         117.3463  152.6387  147.0286 O.3     1  UNL111     -0.4765
      6 O         122.8680  149.8000  145.8542 O.2     1  UNL111     -0.5684
      7 O         116.5243  151.0102  145.6474 O.2     1  UNL111     -0.2790
      8 N         120.7125  156.4935  145.8294 N.4     1  UNL111      0.4269
      9 C         120.2003  153.6412  145.9722 C.3     1  UNL111      0.0510
     10 C         119.7680  154.5837  147.1001 C.3     1  UNL111     -0.0167
     11 C         119.4691  152.2849  145.8563 C.3     1  UNL111      0.0991
     12 C         120.8175  155.7323  147.1663 C.3     1  UNL111     -0.0254
     13 C         120.2072  154.3815  144.6172 C.3     1  UNL111     -0.0266
     14 C         121.5647  153.1449  146.2916 C.3     1  UNL111      0.0226
     15 C         119.5661  153.8884  148.4643 C.3     1  UNL111     -0.0362
     16 C         118.6121  151.9364  147.0926 C.3     1  UNL111      0.1007
     17 C         122.2782  155.2398  147.4402 C.3     1  UNL111     -0.0225
     18 C         119.2806  152.3814  148.3959 C.3     1  UNL111     -0.0082
     19 C         121.0455  155.6548  144.6186 C.3     1  UNL111     -0.0368
     20 C         122.5750  153.8629  146.9052 C.3     1  UNL111     -0.0429
     21 C         121.6727  151.8010  146.0021 C.3     1  UNL111      0.1065
     22 C         121.4437  157.8116  145.8175 C.3     1  UNL111     -0.0445
     23 C         123.7870  153.2016  147.1029 C.3     1  UNL111     -0.0571
     24 C         122.8622  151.1203  146.1892 C.3     1  UNL111      0.0927
     25 C         123.9344  151.8469  146.7268 C.3     1  UNL111     -0.0130
     26 C         116.3561  152.0444  146.2836 C.2     1  UNL111      0.3883
     27 C         115.0599  152.8569  146.3410 C.3     1  UNL111      0.4660
     28 C         124.0747  149.0789  146.0661 C.3     1  UNL111      0.0331
     29 H         119.7215  156.7555  145.7330 H       1  UNL111      0.1324
     30 H         118.7935  155.0159  146.8284 H       1  UNL111      0.0621
     31 H         118.8181  152.2887  144.9733 H       1  UNL111      0.1454
     32 H         120.5256  156.4613  147.9317 H       1  UNL111      0.0835
     33 H         119.1730  154.6445  144.3559 H       1  UNL111      0.0542
     34 H         120.5699  153.7288  143.8123 H       1  UNL111      0.0542
     35 H         118.7249  154.3836  148.9681 H       1  UNL111      0.0404
     36 H         120.4219  154.0452  149.1308 H       1  UNL111      0.0404
     37 H         118.4403  150.8542  147.1519 H       1  UNL111      0.1430
     38 H         122.4089  155.1943  148.5293 H       1  UNL111      0.0613
     39 H         123.0233  155.9469  147.0651 H       1  UNL111      0.0613
     40 H         118.6384  152.1196  149.2463 H       1  UNL111      0.0540
     41 H         120.2152  151.8262  148.5382 H       1  UNL111      0.0540
     42 H         122.1208  155.4512  144.6294 H       1  UNL111      0.0738
     43 H         120.8174  156.2589  143.7335 H       1  UNL111      0.0738
     44 H         122.5193  157.6284  145.7789 H       1  UNL111      0.0667
     45 H         121.1666  158.3641  146.7186 H       1  UNL111      0.0667
     46 H         121.1194  158.3626  144.9304 H       1  UNL111      0.0667
     47 H         124.6257  153.7060  147.5805 H       1  UNL111      0.0939
     48 H         124.8967  151.3752  146.9083 H       1  UNL111      0.1142
     49 H         123.9065  148.0446  145.7510 H       1  UNL111      0.1074
     50 H         124.3443  149.0649  147.1273 H       1  UNL111      0.1074
     51 H         124.8887  149.4855  145.4571 H       1  UNL111      0.1074
@<TRIPOS>UNITY_ATOM_ATTR
8 1
charge 1
@<TRIPOS>BOND
     1     1    27    1
     2     2    27    1
     3     3    27    1
     4     4    11    1
     5     4    21    1
     6     5    16    1
     7     5    26    1
     8     6    24    1
     9     6    28    1
    10     7    26    2
    11     8    12    1
    12     8    19    1
    13     8    22    1
    14     9    10    1
    15     9    11    1
    16     9    13    1
    17     9    14    1
    18    10    12    1
    19    10    15    1
    20    11    16    1
    21    12    17    1
    22    13    19    1
    23    14    20   ar
    24    14    21   ar
    25    15    18    1
    26    16    18    1
    27    17    20    1
    28    20    23   ar
    29    21    24   ar
    30    23    25   ar
    31    24    25   ar
    32    26    27    1
    33     8    29    1
    34    10    30    1
    35    11    31    1
    36    12    32    1
    37    13    33    1
    38    13    34    1
    39    15    35    1
    40    15    36    1
    41    16    37    1
    42    17    38    1
    43    17    39    1
    44    18    40    1
    45    18    41    1
    46    19    42    1
    47    19    43    1
    48    22    44    1
    49    22    45    1
    50    22    46    1
    51    23    47    1
    52    25    48    1
    53    28    49    1
    54    28    50    1
    55    28    51    1
@<TRIPOS>MOLECULE
625501
 43 47 0 0 0
SMALL
GASTEIGER

@<TRIPOS>ATOM
      1 O         118.4828  154.0590  145.2896 O.3     1  UNL111     -0.5455
      2 O         119.0687  156.8425  146.4424 O.3     1  UNL111     -0.4416
      3 O         116.1855  152.2534  145.8612 O.3     1  UNL111     -0.5684
      4 N         123.0613  151.7649  145.7808 N.4     1  UNL111      0.4332
      5 C         120.7701  153.5134  145.8135 C.3     1  UNL111      0.0473
      6 C         121.9346  153.7081  146.7875 C.3     1  UNL111     -0.0178
      7 C         119.7800  154.6747  145.6157 C.3     1  UNL111      0.0840
      8 C         122.5100  152.3054  147.0941 C.3     1  UNL111     -0.0211
      9 C         119.7974  152.5323  146.3663 C.ar    1  UNL111      0.0218
     10 C         121.3209  152.9759  144.4717 C.3     1  UNL111     -0.0271
     11 C         121.5421  154.5063  148.0346 C.3     1  UNL111     -0.0398
     12 C         119.5815  155.5767  146.8570 C.3     1  UNL111      0.0437
     13 C         121.4925  151.2947  147.7053 C.3     1  UNL111     -0.0223
     14 C         120.8765  155.8193  147.6285 C.3     1  UNL111     -0.0235
     15 C         120.0918  151.4480  147.1753 C.ar    1  UNL111     -0.0430
     16 C         122.1008  151.6736  144.6339 C.3     1  UNL111     -0.0324
     17 C         118.5149  152.8606  145.9665 C.ar    1  UNL111      0.1054
     18 C         119.0310  150.6063  147.5088 C.ar    1  UNL111     -0.0571
     19 C         117.4605  152.0363  146.2878 C.ar    1  UNL111      0.0926
     20 C         117.7287  150.8843  147.0396 C.ar    1  UNL111     -0.0130
     21 C         115.5834  153.3386  146.5663 C.3     1  UNL111      0.0331
     22 H         118.2035  156.6818  146.0203 H       1  UNL111      0.2393
     23 H         123.4652  150.8307  145.9412 H       1  UNL111      0.1365
     24 H         123.8589  152.3500  145.4931 H       1  UNL111      0.1365
     25 H         122.7137  154.2999  146.2834 H       1  UNL111      0.0618
     26 H         120.0650  155.2929  144.7551 H       1  UNL111      0.1393
     27 H         123.3848  152.3784  147.7500 H       1  UNL111      0.0834
     28 H         121.9811  153.7343  144.0299 H       1  UNL111      0.0540
     29 H         120.5168  152.8116  143.7428 H       1  UNL111      0.0540
     30 H         122.4392  154.7208  148.6274 H       1  UNL111      0.0395
     31 H         120.8661  153.9379  148.6834 H       1  UNL111      0.0395
     32 H         118.8360  155.1491  147.5385 H       1  UNL111      0.1114
     33 H         121.4521  151.4688  148.7880 H       1  UNL111      0.0612
     34 H         121.8389  150.2661  147.5508 H       1  UNL111      0.0612
     35 H         121.5652  156.4253  147.0256 H       1  UNL111      0.0481
     36 H         120.6610  156.4182  148.5219 H       1  UNL111      0.0481
     37 H         121.4497  150.8145  144.8206 H       1  UNL111      0.0737
     38 H         122.6968  151.4576  143.7415 H       1  UNL111      0.0737
     39 H         119.1853  149.7318  148.1390 H       1  UNL111      0.0939
     40 H         116.9108  150.2115  147.2914 H       1  UNL111      0.1142
     41 H         114.5379  153.4032  146.2503 H       1  UNL111      0.1074
     42 H         116.0657  154.2920  146.3292 H       1  UNL111      0.1074
     43 H         115.5995  153.1615  147.6478 H       1  UNL111      0.1074
@<TRIPOS>UNITY_ATOM_ATTR
4 1
charge 1
@<TRIPOS>BOND
     1     1     7    1
     2     1    17    1
     3     2    12    1
     4     3    19    1
     5     3    21    1
     6     4     8    1
     7     4    16    1
     8     5     6    1
     9     5     7    1
    10     5     9    1
    11     5    10    1
    12     6     8    1
    13     6    11    1
    14     7    12    1
    15     8    13    1
    16     9    15   ar
    17     9    17   ar
    18    10    16    1
    19    11    14    1
    20    12    14    1
    21    13    15    1
    22    15    18   ar
    23    17    19   ar
    24    18    20   ar
    25    19    20   ar
    26     2    22    1
    27     4    23    1
    28     4    24    1
    29     6    25    1
    30     7    26    1
    31     8    27    1
    32    10    28    1
    33    10    29    1
    34    11    30    1
    35    11    31    1
    36    12    32    1
    37    13    33    1
    38    13    34    1
    39    14    35    1
    40    14    36    1
    41    16    37    1
    42    16    38    1
    43    18    39    1
    44    20    40    1
    45    21    41    1
    46    21    42    1
    47    21    43    1
@<TRIPOS>MOLECULE
117065117
 29 33 0 0 0
SMALL
GASTEIGER

@<TRIPOS>ATOM
      1 O         121.6319  154.2880  147.0806 O.2     1  UNL111     -0.5164
      2 O         119.7963  156.9020  147.6411 O.3     1  UNL111     -0.2858
      3 O         123.9054  152.5647  146.5263 O.2     1  UNL111     -0.5647
      4 N         116.4786  152.2858  146.6063 N.4     1  UNL111      0.4417
      5 C         119.3282  153.5994  146.9616 C.3     1  UNL111      0.1083
      6 C         118.3297  153.6719  145.7360 C.3     1  UNL111      0.0500
      7 C         120.2898  154.7404  147.1842 C.3     1  UNL111      0.1811
      8 C         117.5588  152.4058  145.5962 C.3     1  UNL111      0.0373
      9 C         118.4624  153.2732  148.1098 C.3     1  UNL111      0.0730
     10 C         120.2927  152.4960  146.6371 C.2     1  UNL111      0.0448
     11 C         118.0934  154.9417  145.1807 C.3     1  UNL111      0.0416
     12 C         119.9489  156.0811  146.7117 C.3     1  UNL111      0.1896
     13 C         118.5642  151.3492  145.5794 C.3     1  UNL111      0.0623
     14 C         118.9524  156.0790  145.6906 C.3     1  UNL111      0.0881
     15 C         117.1047  152.6419  147.8975 C.3     1  UNL111      0.0443
     16 C         119.9368  151.3051  146.0007 C.2     1  UNL111      0.0038
     17 C         121.5951  152.9424  146.7552 C.2     1  UNL111      0.1199
     18 C         115.7987  150.9691  146.5874 C.3     1  UNL111     -0.0323
     19 C         120.9486  150.4638  145.5862 C.2     1  UNL111      0.0155
     20 C         122.6287  152.1103  146.3794 C.2     1  UNL111      0.1164
     21 C         122.2850  150.8549  145.8295 C.2     1  UNL111      0.0652
     22 C         124.9303  151.6581  146.1355 C.3     1  UNL111      0.0339
     23 H         115.7924  153.0319  146.4141 H       1  UNL111      0.1523
     24 H         116.4939  150.1805  146.8925 H       1  UNL111      0.0693
     25 H         115.4169  150.7877  145.5782 H       1  UNL111      0.0693
     26 H         114.9604  151.0156  147.2891 H       1  UNL111      0.0693
     27 H         125.8941  152.1356  146.3362 H       1  UNL111      0.1075
     28 H         124.8786  151.4440  145.0627 H       1  UNL111      0.1075
     29 H         124.8872  150.7339  146.7222 H       1  UNL111      0.1075
@<TRIPOS>UNITY_ATOM_ATTR
4 1
charge 1
@<TRIPOS>BOND
     1     1     7    1
     2     1    17    1
     3     2    12    1
     4     3    20    1
     5     3    22    1
     6     4     8    1
     7     4    15    1
     8     4    18    1
     9     5     6    1
    10     5     7    1
    11     5     9    1
    12     5    10    1
    13     6     8    1
    14     6    11    1
    15     7    12    1
    16     8    13    1
    17     9    15    1
    18    10    16    2
    19    10    17    1
    20    11    14    1
    21    12    14    1
    22    13    16    1
    23    16    19    1
    24    17    20    2
    25    19    21    2
    26    20    21    1
    27     4    23    1
    28    18    24    1
    29    18    25    1
    30    18    26    1
    31    22    27    1
    32    22    28    1
    33    22    29    1
@<TRIPOS>MOLECULE
129846474
 54 57 0 0 0
SMALL
GASTEIGER

@<TRIPOS>ATOM
      1 O         119.0706  151.8869  147.1010 O.2     1  UNL111     -0.5536
      2 O         116.7945  153.3582  147.1250 O.3     1  UNL111     -0.2526
      3 O         120.3984  149.9793  145.2743 O.2     1  UNL111     -0.5704
      4 O         115.6501  154.2101  146.7788 O.3     1  UNL111     -0.3716
      5 O         115.7924  153.0828  144.7668 O.2     1  UNL111     -0.3206
      6 N         122.8879  154.1228  145.3200 N.4     1  UNL111      0.4264
      7 C         120.2900  153.5945  145.6907 C.3     1  UNL111      0.0087
      8 C         120.7805  154.7523  146.5755 C.3     1  UNL111     -0.0157
      9 C         122.3220  154.5980  146.6969 C.3     1  UNL111     -0.0289
     10 C         118.9427  152.9499  146.0814 C.3     1  UNL111      0.0926
     11 C         120.5638  153.9752  144.2407 C.3     1  UNL111     -0.0382
     12 C         122.8689  153.7505  147.8790 C.3     1  UNL111     -0.0412
     13 C         122.0084  154.5216  144.1129 C.3     1  UNL111     -0.0394
     14 C         117.9799  154.0122  146.6635 C.3     1  UNL111      0.1294
     15 C         119.9521  155.0375  147.7956 C.2     1  UNL111     -0.0867
     16 C         122.5565  152.2495  148.1485 C.3     1  UNL111     -0.0136
     17 C         118.6413  154.7365  147.8135 C.2     1  UNL111     -0.0478
     18 C         121.0818  151.9087  148.4712 C.3     1  UNL111      0.0214
     19 C         120.3235  151.3442  147.2938 C.2     1  UNL111      0.0705
     20 C         124.3137  154.5530  145.0957 C.3     1  UNL111     -0.0446
     21 C         123.1563  151.2685  147.1640 C.2     1  UNL111     -0.0818
     22 C         120.9497  150.5460  146.3968 C.2     1  UNL111      0.0800
     23 C         122.3980  150.4345  146.4308 C.2     1  UNL111     -0.0230
     24 C         119.1243  149.3685  145.4873 C.3     1  UNL111      0.0326
     25 C         115.1841  153.7948  145.5569 C.2     1  UNL111      0.2742
     26 C         113.8520  154.4214  145.2811 C.3     1  UNL111      0.0694
     27 H         122.9083  153.0915  145.3315 H       1  UNL111      0.1322
     28 H         121.0103  152.8023  145.7896 H       1  UNL111      0.0681
     29 H         120.6404  155.6857  146.0040 H       1  UNL111      0.0676
     30 H         122.7263  155.6122  146.8237 H       1  UNL111      0.0828
     31 H         118.4829  152.4663  145.2128 H       1  UNL111      0.1410
     32 H         119.8482  154.7211  143.8768 H       1  UNL111      0.0502
     33 H         120.4527  153.0919  143.5999 H       1  UNL111      0.0502
     34 H         122.5750  154.2857  148.7939 H       1  UNL111      0.0507
     35 H         123.9635  153.8420  147.8638 H       1  UNL111      0.0507
     36 H         122.4896  154.1233  143.2136 H       1  UNL111      0.0732
     37 H         122.0164  155.6164  144.0704 H       1  UNL111      0.0732
     38 H         117.7341  154.7474  145.8861 H       1  UNL111      0.1509
     39 H         120.3836  155.5878  148.6291 H       1  UNL111      0.0810
     40 H         123.0903  152.0440  149.0905 H       1  UNL111      0.0569
     41 H         118.0202  155.0095  148.6634 H       1  UNL111      0.0951
     42 H         120.5757  152.7687  148.9135 H       1  UNL111      0.0694
     43 H         121.0609  151.1389  149.2563 H       1  UNL111      0.0694
     44 H         124.3487  155.6452  145.0781 H       1  UNL111      0.0667
     45 H         124.6465  154.1366  144.1412 H       1  UNL111      0.0667
     46 H         124.9299  154.1510  145.9018 H       1  UNL111      0.0667
     47 H         124.2389  151.1594  147.1456 H       1  UNL111      0.0812
     48 H         122.8521  149.6832  145.7881 H       1  UNL111      0.1113
     49 H         118.9483  148.6742  144.6600 H       1  UNL111      0.1073
     50 H         118.3225  150.1104  145.4695 H       1  UNL111      0.1073
     51 H         119.1019  148.7937  146.4198 H       1  UNL111      0.1073
     52 H         113.9804  155.4854  145.0693 H       1  UNL111      0.0825
     53 H         113.1880  154.2781  146.1376 H       1  UNL111      0.0825
     54 H         113.3961  153.9335  144.4148 H       1  UNL111      0.0825
@<TRIPOS>UNITY_ATOM_ATTR
6 1
charge 1
@<TRIPOS>BOND
     1     1    10    1
     2     1    19    1
     3     2     4    1
     4     2    14    1
     5     3    22    1
     6     3    24    1
     7     4    25    1
     8     5    25    2
     9     6     9    1
    10     6    13    1
    11     6    20    1
    12     7     8    1
    13     7    10    1
    14     7    11    1
    15     8     9    1
    16     8    15    1
    17     9    12    1
    18    10    14    1
    19    11    13    1
    20    12    16    1
    21    14    17    1
    22    15    17    2
    23    16    18    1
    24    16    21    1
    25    18    19    1
    26    19    22    2
    27    21    23    2
    28    22    23    1
    29    25    26    1
    30     6    27    1
    31     7    28    1
    32     8    29    1
    33     9    30    1
    34    10    31    1
    35    11    32    1
    36    11    33    1
    37    12    34    1
    38    12    35    1
    39    13    36    1
    40    13    37    1
    41    14    38    1
    42    15    39    1
    43    16    40    1
    44    17    41    1
    45    18    42    1
    46    18    43    1
    47    20    44    1
    48    20    45    1
    49    20    46    1
    50    21    47    1
    51    23    48    1
    52    24    49    1
    53    24    50    1
    54    24    51    1
    55    26    52    1
    56    26    53    1
    57    26    54    1
@<TRIPOS>MOLECULE
165362010
 47 51 0 0 0
SMALL
GASTEIGER

@<TRIPOS>ATOM
      1 O         121.6290  151.9777  145.2813 O.2     1  UNL1111    -0.5436
      2 O         117.3907  151.3009  146.5334 O.3     1  UNL1111    -0.4363
      3 O         115.8807  153.1185  145.7282 O.co2   1  UNL1111    -0.7548
      4 O         121.4728  149.4728  146.3241 O.3     1  UNL1111    -0.4412
      5 O         123.8943  153.5690  145.7868 O.2     1  UNL1111    -0.5684
      6 N         116.8166  154.0970  146.0189 N.3     1  UNL1111     0.4052
      7 C         119.3194  152.5531  145.8006 C.3     1  UNL1111     0.0712
      8 C         118.3434  152.2890  146.9551 C.3     1  UNL1111     0.0424
      9 C         117.6478  153.6690  147.2587 C.3     1  UNL1111    -0.0177
     10 C         120.2801  151.4075  145.4408 C.3     1  UNL1111     0.0914
     11 C         118.5958  153.0749  144.5392 C.3     1  UNL1111    -0.0224
     12 C         120.3104  153.5563  146.2785 C.3     1  UNL1111     0.0306
     13 C         119.0151  151.6722  148.2104 C.3     1  UNL1111    -0.0147
     14 C         117.7123  154.2899  144.8125 C.3     1  UNL1111    -0.0522
     15 C         118.6701  154.7577  147.7275 C.3     1  UNL1111    -0.0176
     16 C         120.2976  150.2722  146.4838 C.3     1  UNL1111     0.0465
     17 C         120.2329  150.7819  147.9196 C.3     1  UNL1111    -0.0161
     18 C         120.0449  154.6251  147.1168 C.3     1  UNL1111    -0.0398
     19 C         121.5875  153.2036  145.8985 C.3     1  UNL1111     0.1074
     20 C         116.0359  155.3588  146.2746 C.3     1  UNL1111    -0.0612
     21 C         121.1220  155.4438  147.4542 C.3     1  UNL1111    -0.0567
     22 C         122.6746  153.9964  146.2215 C.3     1  UNL1111     0.0928
     23 C         122.4227  155.1432  146.9901 C.3     1  UNL1111    -0.0130
     24 C         125.0146  154.3860  146.0968 C.3     1  UNL1111     0.0331
     25 H         116.6223  151.7998  146.1429 H       1  UNL1111     0.2435
     26 H         122.1981  150.0929  146.1108 H       1  UNL1111     0.2393
     27 H         116.8783  153.5311  148.0300 H       1  UNL1111     0.0934
     28 H         120.0386  150.9618  144.4675 H       1  UNL1111     0.1414
     29 H         117.9741  152.2711  144.1240 H       1  UNL1111     0.0559
     30 H         119.3154  153.3396  143.7533 H       1  UNL1111     0.0559
     31 H         118.2724  151.0669  148.7480 H       1  UNL1111     0.0523
     32 H         119.3331  152.4383  148.9252 H       1  UNL1111     0.0523
     33 H         118.3049  155.1925  144.9912 H       1  UNL1111     0.0709
     34 H         117.0470  154.4806  143.9620 H       1  UNL1111     0.0709
     35 H         118.7894  154.6518  148.8136 H       1  UNL1111     0.0631
     36 H         118.3057  155.7727  147.5569 H       1  UNL1111     0.0631
     37 H         119.4390  149.6131  146.3117 H       1  UNL1111     0.1119
     38 H         120.2426  149.9338  148.6161 H       1  UNL1111     0.0501
     39 H         121.1530  151.3337  148.1523 H       1  UNL1111     0.0501
     40 H         115.4892  155.2271  147.2117 H       1  UNL1111     0.0636
     41 H         115.3384  155.4848  145.4406 H       1  UNL1111     0.0636
     42 H         116.7176  156.2085  146.3188 H       1  UNL1111     0.0636
     43 H         120.9802  156.3013  148.1091 H       1  UNL1111     0.0940
     44 H         123.2282  155.8072  147.2899 H       1  UNL1111     0.1142
     45 H         125.9022  153.9162  145.6624 H       1  UNL1111     0.1074
     46 H         125.1679  154.4506  147.1790 H       1  UNL1111     0.1074
     47 H         124.9132  155.3815  145.6520 H       1  UNL1111     0.1074
@<TRIPOS>UNITY_ATOM_ATTR
3 1
charge -1
6 1
charge 1
@<TRIPOS>BOND
     1     1    10    1
     2     1    19    1
     3     2     8    1
     4     3     6    1
     5     4    16    1
     6     5    22    1
     7     5    24    1
     8     6     9    1
     9     6    14    1
    10     6    20    1
    11     7     8    1
    12     7    10    1
    13     7    11    1
    14     7    12    1
    15     8     9    1
    16     8    13    1
    17     9    15    1
    18    10    16    1
    19    11    14    1
    20    12    18   ar
    21    12    19   ar
    22    13    17    1
    23    15    18    1
    24    16    17    1
    25    18    21   ar
    26    19    22   ar
    27    21    23   ar
    28    22    23   ar
    29     2    25    1
    30     4    26    1
    31     9    27    1
    32    10    28    1
    33    11    29    1
    34    11    30    1
    35    13    31    1
    36    13    32    1
    37    14    33    1
    38    14    34    1
    39    15    35    1
    40    15    36    1
    41    16    37    1
    42    17    38    1
    43    17    39    1
    44    20    40    1
    45    20    41    1
    46    20    42    1
    47    21    43    1
    48    23    44    1
    49    24    45    1
    50    24    46    1
    51    24    47    1
@<TRIPOS>MOLECULE
5463874
 51 55 0 0 0
SMALL
GASTEIGER

@<TRIPOS>ATOM
      1 O         120.9046  153.5536  144.7105 O.2     1  UNL111     -0.5411
      2 O         121.8465  151.8915  146.6834 O.3     1  UNL111     -0.5107
      3 O         122.1411  155.8885  145.7441 O.2     1  UNL111     -0.5684
      4 O         123.5853  150.4075  146.4949 O.2     1  UNL111     -0.3416
      5 N         116.0838  152.6487  146.2998 N.4     1  UNL111      0.4269
      6 C         118.8826  152.5478  145.5339 C.3     1  UNL111      0.0509
      7 C         118.2398  151.4429  146.3734 C.3     1  UNL111     -0.0167
      8 C         120.2324  152.2572  144.8494 C.3     1  UNL111      0.0983
      9 C         117.1668  152.1157  147.2688 C.3     1  UNL111     -0.0254
     10 C         117.8225  153.1004  144.5522 C.3     1  UNL111     -0.0266
     11 C         119.3534  153.6698  146.3866 C.3     1  UNL111      0.0226
     12 C         119.2555  150.5895  147.1361 C.3     1  UNL111     -0.0362
     13 C         121.1537  151.2439  145.5925 C.3     1  UNL111      0.0934
     14 C         117.7259  153.2336  148.2081 C.3     1  UNL111     -0.0225
     15 C         120.3425  150.0826  146.1788 C.3     1  UNL111     -0.0090
     16 C         116.5828  153.6393  145.2674 C.3     1  UNL111     -0.0368
     17 C         118.8130  154.0696  147.5909 C.3     1  UNL111     -0.0429
     18 C         120.4674  154.2611  145.8149 C.3     1  UNL111      0.1065
     19 C         114.8397  153.1457  146.9895 C.3     1  UNL111     -0.0445
     20 C         119.3990  155.1800  148.1958 C.3     1  UNL111     -0.0571
     21 C         121.0581  155.3707  146.3864 C.3     1  UNL111      0.0927
     22 C         120.4985  155.8353  147.5875 C.3     1  UNL111     -0.0130
     23 C         123.0792  151.4038  146.9892 C.2     1  UNL111      0.2130
     24 C         123.7146  152.2475  148.0506 C.3     1  UNL111      0.0547
     25 C         122.7736  157.0136  146.3397 C.3     1  UNL111      0.0331
     26 H         115.7663  151.8277  145.7665 H       1  UNL111      0.1324
     27 H         117.7310  150.7446  145.6912 H       1  UNL111      0.0621
     28 H         120.0498  151.8654  143.8404 H       1  UNL111      0.1454
     29 H         116.6548  151.3566  147.8722 H       1  UNL111      0.0835
     30 H         117.5194  152.2985  143.8657 H       1  UNL111      0.0542
     31 H         118.2328  153.8992  143.9209 H       1  UNL111      0.0542
     32 H         118.7421  149.7307  147.5850 H       1  UNL111      0.0404
     33 H         119.7098  151.1458  147.9632 H       1  UNL111      0.0404
     34 H         121.8887  150.8761  144.8658 H       1  UNL111      0.1421
     35 H         118.1624  152.7389  149.0856 H       1  UNL111      0.0613
     36 H         116.9257  153.8809  148.5780 H       1  UNL111      0.0613
     37 H         119.8867  149.4998  145.3695 H       1  UNL111      0.0540
     38 H         121.0015  149.4071  146.7361 H       1  UNL111      0.0540
     39 H         116.7720  154.5897  145.7762 H       1  UNL111      0.0738
     40 H         115.7691  153.7905  144.5495 H       1  UNL111      0.0738
     41 H         115.0506  154.1063  147.4640 H       1  UNL111      0.0667
     42 H         114.5339  152.3970  147.7242 H       1  UNL111      0.0667
     43 H         114.0621  153.2597  146.2293 H       1  UNL111      0.0667
     44 H         119.0358  155.5482  149.1540 H       1  UNL111      0.0939
     45 H         120.9175  156.6953  148.1037 H       1  UNL111      0.1142
     46 H         123.7531  153.2897  147.7228 H       1  UNL111      0.0793
     47 H         124.7381  151.9029  148.2232 H       1  UNL111      0.0793
     48 H         123.1489  152.1582  148.9813 H       1  UNL111      0.0793
     49 H         123.6160  157.3004  145.7029 H       1  UNL111      0.1074
     50 H         123.1724  156.7636  147.3284 H       1  UNL111      0.1074
     51 H         122.0901  157.8673  146.3937 H       1  UNL111      0.1074
@<TRIPOS>UNITY_ATOM_ATTR
5 1
charge 1
@<TRIPOS>BOND
     1     1     8    1
     2     1    18    1
     3     2    13    1
     4     2    23    1
     5     3    21    1
     6     3    25    1
     7     4    23    2
     8     5     9    1
     9     5    16    1
    10     5    19    1
    11     6     7    1
    12     6     8    1
    13     6    10    1
    14     6    11    1
    15     7     9    1
    16     7    12    1
    17     8    13    1
    18     9    14    1
    19    10    16    1
    20    11    17   ar
    21    11    18   ar
    22    12    15    1
    23    13    15    1
    24    14    17    1
    25    17    20   ar
    26    18    21   ar
    27    20    22   ar
    28    21    22   ar
    29    23    24    1
    30     5    26    1
    31     7    27    1
    32     8    28    1
    33     9    29    1
    34    10    30    1
    35    10    31    1
    36    12    32    1
    37    12    33    1
    38    13    34    1
    39    14    35    1
    40    14    36    1
    41    15    37    1
    42    15    38    1
    43    16    39    1
    44    16    40    1
    45    19    41    1
    46    19    42    1
    47    19    43    1
    48    20    44    1
    49    22    45    1
    50    24    46    1
    51    24    47    1
    52    24    48    1
    53    25    49    1
    54    25    50    1
    55    25    51    1
@<TRIPOS>MOLECULE
3063
 46 50 0 0 0
SMALL
GASTEIGER

@<TRIPOS>ATOM
      1 O         121.5745  153.8100  147.6013 O.3     1  UNL111     -0.5455
      2 O         121.6383  156.6732  146.5024 O.3     1  UNL111     -0.4416
      3 O         123.4497  151.5977  147.0603 O.3     1  UNL111     -0.5684
      4 N         116.5904  152.5960  146.9283 N.4     1  UNL111      0.4269
      5 C         119.2413  153.7753  146.9920 C.3     1  UNL111      0.0474
      6 C         118.1832  154.2350  145.9864 C.3     1  UNL111     -0.0179
      7 C         120.4498  154.6938  147.2506 C.3     1  UNL111      0.0841
      8 C         117.3221  152.9951  145.6266 C.3     1  UNL111     -0.0256
      9 C         118.5435  153.3422  148.3011 C.3     1  UNL111     -0.0273
     10 C         120.0018  152.6197  146.4469 C.ar    1  UNL111      0.0218
     11 C         118.7848  154.9495  144.7717 C.3     1  UNL111     -0.0398
     12 C         120.8824  155.5544  146.0395 C.3     1  UNL111      0.0437
     13 C         118.1364  151.8080  145.0168 C.3     1  UNL111     -0.0225
     14 C         119.6998  156.0823  145.2314 C.3     1  UNL111     -0.0235
     15 C         117.5023  152.2445  148.0846 C.3     1  UNL111     -0.0369
     16 C         119.5155  151.6426  145.5969 C.ar    1  UNL111     -0.0430
     17 C         121.3084  152.6581  146.8961 C.ar    1  UNL111      0.1054
     18 C         115.5157  151.5581  146.7312 C.3     1  UNL111     -0.0445
     19 C         120.3881  150.6052  145.2660 C.ar    1  UNL111     -0.0571
     20 C         122.1765  151.6392  146.5787 C.ar    1  UNL111      0.0926
     21 C         121.7032  150.5900  145.7800 C.ar    1  UNL111     -0.0130
     22 C         124.3252  152.3494  146.2197 C.3     1  UNL111      0.0331
     23 H         122.4306  156.3215  146.9512 H       1  UNL111      0.2393
     24 H         116.0763  153.4375  147.2242 H       1  UNL111      0.1324
     25 H         117.5362  154.9768  146.4786 H       1  UNL111      0.0619
     26 H         120.2723  155.3432  148.1170 H       1  UNL111      0.1393
     27 H         116.5243  153.2839  144.9319 H       1  UNL111      0.0835
     28 H         118.0510  154.2169  148.7467 H       1  UNL111      0.0541
     29 H         119.2684  152.9900  149.0464 H       1  UNL111      0.0541
     30 H         117.9777  155.3611  144.1542 H       1  UNL111      0.0396
     31 H         119.3481  154.2602  144.1329 H       1  UNL111      0.0396
     32 H         121.5445  154.9889  145.3725 H       1  UNL111      0.1114
     33 H         118.2639  152.0124  143.9457 H       1  UNL111      0.0613
     34 H         117.5877  150.8650  145.0939 H       1  UNL111      0.0613
     35 H         119.1344  156.8122  145.8252 H       1  UNL111      0.0481
     36 H         120.0721  156.6354  144.3604 H       1  UNL111      0.0481
     37 H         117.9559  151.2711  147.8732 H       1  UNL111      0.0738
     38 H         116.8697  152.1436  148.9734 H       1  UNL111      0.0738
     39 H         115.9813  150.5864  146.5543 H       1  UNL111      0.0667
     40 H         114.8971  151.8635  145.8838 H       1  UNL111      0.0667
     41 H         114.9105  151.5301  147.6415 H       1  UNL111      0.0667
     42 H         120.0753  149.8007  144.6024 H       1  UNL111      0.0939
     43 H         122.3701  149.7672  145.5301 H       1  UNL111      0.1142
     44 H         125.3292  152.3002  146.6516 H       1  UNL111      0.1074
     45 H         124.0287  153.4028  146.1692 H       1  UNL111      0.1074
     46 H         124.3672  151.9174  145.2136 H       1  UNL111      0.1074
@<TRIPOS>UNITY_ATOM_ATTR
4 1
charge 1
@<TRIPOS>BOND
     1     1     7    1
     2     1    17    1
     3     2    12    1
     4     3    20    1
     5     3    22    1
     6     4     8    1
     7     4    15    1
     8     4    18    1
     9     5     6    1
    10     5     7    1
    11     5     9    1
    12     5    10    1
    13     6     8    1
    14     6    11    1
    15     7    12    1
    16     8    13    1
    17     9    15    1
    18    10    16   ar
    19    10    17   ar
    20    11    14    1
    21    12    14    1
    22    13    16    1
    23    16    19   ar
    24    17    20   ar
    25    19    21   ar
    26    20    21   ar
    27     2    23    1
    28     4    24    1
    29     6    25    1
    30     7    26    1
    31     8    27    1
    32     9    28    1
    33     9    29    1
    34    11    30    1
    35    11    31    1
    36    12    32    1
    37    13    33    1
    38    13    34    1
    39    14    35    1
    40    14    36    1
    41    15    37    1
    42    15    38    1
    43    18    39    1
    44    18    40    1
    45    18    41    1
    46    19    42    1
    47    21    43    1
    48    22    44    1
    49    22    45    1
    50    22    46    1
@<TRIPOS>MOLECULE
5284371
 44 48 0 0 0
SMALL
GASTEIGER

@<TRIPOS>ATOM
      1 O         118.3578  152.0924  147.7236 O.3     1  UNL111     -0.5437
      2 O         117.9246  150.5743  145.6275 O.3     1  UNL111     -0.4348
      3 O         116.2363  153.8796  147.1828 O.3     1  UNL111     -0.5684
      4 N         123.1231  153.8942  146.8933 N.4     1  UNL111      0.4275
      5 C         120.6550  152.3641  147.0529 C.3     1  UNL111      0.0532
      6 C         121.7563  151.9881  146.0561 C.3     1  UNL111     -0.0026
      7 C         122.4384  153.3223  145.6241 C.3     1  UNL111     -0.0206
      8 C         119.5563  151.3245  147.3512 C.3     1  UNL111      0.0902
      9 C         121.3121  152.9294  148.3331 C.3     1  UNL111     -0.0259
     10 C         119.7567  153.4109  146.4894 C.ar    1  UNL111      0.0234
     11 C         121.4667  154.3457  144.9561 C.3     1  UNL111     -0.0213
     12 C         122.1885  154.1524  148.0569 C.3     1  UNL111     -0.0364
     13 C         120.0994  154.3874  145.5776 C.ar    1  UNL111     -0.0425
     14 C         119.2201  150.3482  146.1772 C.3     1  UNL111      0.0605
     15 C         121.2799  151.1222  144.9279 C.2     1  UNL111     -0.0869
     16 C         118.4734  153.2481  146.9759 C.ar    1  UNL111      0.1060
     17 C         120.1613  150.3876  145.0078 C.2     1  UNL111     -0.0672
     18 C         124.0143  155.0785  146.6227 C.3     1  UNL111     -0.0442
     19 C         119.0956  155.2855  145.2171 C.ar    1  UNL111     -0.0571
     20 C         117.4616  154.1267  146.6425 C.ar    1  UNL111      0.0926
     21 C         117.7937  155.1670  145.7618 C.ar    1  UNL111     -0.0130
     22 C         115.1627  154.7088  146.7557 C.3     1  UNL111      0.0331
     23 H         117.3734  150.9620  146.3351 H       1  UNL111      0.2424
     24 H         123.7688  153.1578  147.2103 H       1  UNL111      0.1328
     25 H         122.5116  151.3764  146.5722 H       1  UNL111      0.0720
     26 H         123.2654  153.1110  144.9348 H       1  UNL111      0.0854
     27 H         119.8438  150.7222  148.2225 H       1  UNL111      0.1417
     28 H         121.9267  152.1450  148.7947 H       1  UNL111      0.0544
     29 H         120.5603  153.2053  149.0840 H       1  UNL111      0.0544
     30 H         121.3328  154.0390  143.9103 H       1  UNL111      0.0615
     31 H         121.8971  155.3510  144.9368 H       1  UNL111      0.0615
     32 H         121.6001  155.0456  147.8248 H       1  UNL111      0.0738
     33 H         122.8156  154.3715  148.9281 H       1  UNL111      0.0738
     34 H         119.2143  149.3269  146.5756 H       1  UNL111      0.1221
     35 H         121.8904  151.0403  144.0299 H       1  UNL111      0.0812
     36 H         119.8808  149.7563  144.1645 H       1  UNL111      0.0909
     37 H         123.3960  155.9556  146.4210 H       1  UNL111      0.0667
     38 H         124.6541  154.8372  145.7704 H       1  UNL111      0.0667
     39 H         124.6275  155.2422  147.5131 H       1  UNL111      0.0667
     40 H         119.2887  156.0737  144.4910 H       1  UNL111      0.0939
     41 H         117.0480  155.8908  145.4430 H       1  UNL111      0.1142
     42 H         114.2514  154.3568  147.2487 H       1  UNL111      0.1074
     43 H         115.0089  154.6308  145.6743 H       1  UNL111      0.1074
     44 H         115.3254  155.7486  147.0577 H       1  UNL111      0.1074
@<TRIPOS>UNITY_ATOM_ATTR
4 1
charge 1
@<TRIPOS>BOND
     1     1     8    1
     2     1    16    1
     3     2    14    1
     4     3    20    1
     5     3    22    1
     6     4     7    1
     7     4    12    1
     8     4    18    1
     9     5     6    1
    10     5     8    1
    11     5     9    1
    12     5    10    1
    13     6     7    1
    14     6    15    1
    15     7    11    1
    16     8    14    1
    17     9    12    1
    18    10    13   ar
    19    10    16   ar
    20    11    13    1
    21    13    19   ar
    22    14    17    1
    23    15    17    2
    24    16    20   ar
    25    19    21   ar
    26    20    21   ar
    27     2    23    1
    28     4    24    1
    29     6    25    1
    30     7    26    1
    31     8    27    1
    32     9    28    1
    33     9    29    1
    34    11    30    1
    35    11    31    1
    36    12    32    1
    37    12    33    1
    38    14    34    1
    39    15    35    1
    40    17    36    1
    41    18    37    1
    42    18    38    1
    43    18    39    1
    44    19    40    1
    45    21    41    1
    46    22    42    1
    47    22    43    1
    48    22    44    1
@<TRIPOS>MOLECULE
5284569
 44 48 0 0 0
SMALL
GASTEIGER

@<TRIPOS>ATOM
      1 O         118.3121  152.1340  147.6581 O.2     1  UNL111     -0.5307
      2 O         118.2360  149.8309  146.0407 O.2     1  UNL111     -0.4040
      3 O         116.1379  153.8310  147.0091 O.2     1  UNL111     -0.5683
      4 N         123.0605  154.0198  146.9160 N.4     1  UNL111      0.4270
      5 C         120.6068  152.4732  147.0452 C.3     1  UNL111      0.0597
      6 C         121.7244  152.1237  146.0571 C.3     1  UNL111     -0.0136
      7 C         122.4022  153.4574  145.6367 C.3     1  UNL111     -0.0250
      8 C         119.5378  151.4097  147.3612 C.3     1  UNL111      0.1355
      9 C         121.2287  153.0720  148.3270 C.3     1  UNL111     -0.0250
     10 C         119.6923  153.4756  146.4345 C.3     1  UNL111      0.0248
     11 C         121.2208  151.2884  144.8742 C.3     1  UNL111     -0.0274
     12 C         121.4299  154.4829  144.9685 C.3     1  UNL111     -0.0224
     13 C         122.0988  154.2978  148.0515 C.3     1  UNL111     -0.0366
     14 C         120.0337  154.4597  145.5284 C.3     1  UNL111     -0.0426
     15 C         120.5135  150.0366  145.3774 C.3     1  UNL111      0.0289
     16 C         119.3105  150.4026  146.2184 C.2     1  UNL111      0.1274
     17 C         118.3984  153.2627  146.8728 C.3     1  UNL111      0.1094
     18 C         123.9787  155.1901  146.6659 C.3     1  UNL111     -0.0445
     19 C         119.0092  155.3115  145.1183 C.3     1  UNL111     -0.0571
     20 C         117.3689  154.1024  146.4958 C.3     1  UNL111      0.0931
     21 C         117.6931  155.1443  145.6132 C.3     1  UNL111     -0.0129
     22 C         115.0500  154.6191  146.5444 C.3     1  UNL111      0.0331
     23 H         123.6898  153.2793  147.2554 H       1  UNL111      0.1324
     24 H         122.4691  151.5016  146.5758 H       1  UNL111      0.0627
     25 H         123.2376  153.2522  144.9565 H       1  UNL111      0.0835
     26 H         119.8154  150.8221  148.2447 H       1  UNL111      0.1606
     27 H         121.8412  152.3030  148.8165 H       1  UNL111      0.0545
     28 H         120.4561  153.3533  149.0544 H       1  UNL111      0.0545
     29 H         122.0693  150.9987  144.2436 H       1  UNL111      0.0427
     30 H         120.5372  151.8631  144.2390 H       1  UNL111      0.0427
     31 H         121.3524  154.2177  143.9059 H       1  UNL111      0.0613
     32 H         121.8280  155.5006  145.0109 H       1  UNL111      0.0613
     33 H         121.5095  155.1813  147.7870 H       1  UNL111      0.0738
     34 H         122.7032  154.5378  148.9333 H       1  UNL111      0.0738
     35 H         121.1828  149.4149  145.9820 H       1  UNL111      0.0688
     36 H         120.1766  149.4397  144.5229 H       1  UNL111      0.0688
     37 H         123.3813  156.0744  146.4358 H       1  UNL111      0.0667
     38 H         124.6433  154.9311  145.8380 H       1  UNL111      0.0667
     39 H         124.5644  155.3518  147.5750 H       1  UNL111      0.0667
     40 H         119.1987  156.1048  144.3967 H       1  UNL111      0.0939
     41 H         116.9321  155.8374  145.2633 H       1  UNL111      0.1142
     42 H         114.1372  154.2414  147.0151 H       1  UNL111      0.1074
     43 H         114.9287  154.5279  145.4598 H       1  UNL111      0.1074
     44 H         115.1702  155.6661  146.8411 H       1  UNL111      0.1074
@<TRIPOS>UNITY_ATOM_ATTR
4 1
charge 1
@<TRIPOS>BOND
     1     1     8    1
     2     1    17    1
     3     2    16    2
     4     3    20    1
     5     3    22    1
     6     4     7    1
     7     4    13    1
     8     4    18    1
     9     5     6    1
    10     5     8    1
    11     5     9    1
    12     5    10    1
    13     6     7    1
    14     6    11    1
    15     7    12    1
    16     8    16    1
    17     9    13    1
    18    10    14   ar
    19    10    17   ar
    20    11    15    1
    21    12    14    1
    22    14    19   ar
    23    15    16    1
    24    17    20   ar
    25    19    21   ar
    26    20    21   ar
    27     4    23    1
    28     6    24    1
    29     7    25    1
    30     8    26    1
    31     9    27    1
    32     9    28    1
    33    11    29    1
    34    11    30    1
    35    12    31    1
    36    12    32    1
    37    13    33    1
    38    13    34    1
    39    15    35    1
    40    15    36    1
    41    18    37    1
    42    18    38    1
    43    18    39    1
    44    19    40    1
    45    21    41    1
    46    22    42    1
    47    22    43    1
    48    22    44    1
@<TRIPOS>MOLECULE
520915
 51 55 0 0 0
SMALL
GASTEIGER

@<TRIPOS>ATOM
      1 O         120.1818  151.3747  145.2586 O.2     1  UNL111     -0.5411
      2 O         116.8186  152.5766  146.1221 O.3     1  UNL111     -0.5107
      3 O         122.7504  149.9857  145.8151 O.2     1  UNL111     -0.5684
      4 O         115.6030  150.8680  147.0585 O.2     1  UNL111     -0.3416
      5 N         120.1812  156.5562  146.0992 N.4     1  UNL111      0.4269
      6 C         119.7567  153.6991  145.8254 C.3     1  UNL111      0.0509
      7 C         119.0894  154.4979  146.9494 C.3     1  UNL111     -0.0167
      8 C         119.1105  152.3562  145.4225 C.3     1  UNL111      0.0983
      9 C         120.0660  155.6461  147.3388 C.3     1  UNL111     -0.0254
     10 C         119.9887  154.5914  144.5867 C.3     1  UNL111     -0.0266
     11 C         121.0543  153.1868  146.3394 C.3     1  UNL111      0.0226
     12 C         118.6619  153.6448  148.1638 C.3     1  UNL111     -0.0362
     13 C         118.0438  151.8639  146.4210 C.3     1  UNL111      0.0934
     14 C         121.4683  155.1489  147.8237 C.3     1  UNL111     -0.0225
     15 C         118.4424  152.1540  147.8709 C.3     1  UNL111     -0.0090
     16 C         120.7641  155.8691  144.8873 C.3     1  UNL111     -0.0368
     17 C         121.9156  153.8544  147.1956 C.3     1  UNL111     -0.0429
     18 C         121.2621  151.8880  145.9256 C.3     1  UNL111      0.1065
     19 C         120.8525  157.8778  146.3721 C.3     1  UNL111     -0.0445
     20 C         123.1140  153.2157  147.5163 C.3     1  UNL111     -0.0571
     21 C         122.4365  151.2396  146.2466 C.3     1  UNL111      0.0927
     22 C         123.3854  151.9279  147.0130 C.3     1  UNL111     -0.0130
     23 C         115.6650  151.9394  146.4770 C.2     1  UNL111      0.2130
     24 C         114.4786  152.7741  146.1033 C.3     1  UNL111      0.0547
     25 C         121.9214  148.9976  146.4266 C.3     1  UNL111      0.0331
     26 H         119.2161  156.8103  145.8473 H       1  UNL111      0.1324
     27 H         118.1677  154.9453  146.5491 H       1  UNL111      0.0621
     28 H         118.6310  152.4483  144.4388 H       1  UNL111      0.1454
     29 H         119.6112  156.2763  148.1126 H       1  UNL111      0.0835
     30 H         119.0124  154.8669  144.1651 H       1  UNL111      0.0542
     31 H         120.5190  154.0420  143.7977 H       1  UNL111      0.0542
     32 H         117.7266  154.0680  148.5544 H       1  UNL111      0.0404
     33 H         119.3755  153.7303  148.9912 H       1  UNL111      0.0404
     34 H         117.9024  150.7849  146.2792 H       1  UNL111      0.1421
     35 H         121.3966  154.9703  148.9046 H       1  UNL111      0.0613
     36 H         122.2405  155.9105  147.6835 H       1  UNL111      0.0613
     37 H         117.6715  151.7846  148.5577 H       1  UNL111      0.0540
     38 H         119.3538  151.5962  148.1167 H       1  UNL111      0.0540
     39 H         121.8257  155.6833  145.0771 H       1  UNL111      0.0738
     40 H         120.6810  156.5681  144.0478 H       1  UNL111      0.0738
     41 H         121.9229  157.7174  146.5148 H       1  UNL111      0.0667
     42 H         120.3940  158.3164  147.2618 H       1  UNL111      0.0667
     43 H         120.6763  158.5237  145.5076 H       1  UNL111      0.0667
     44 H         123.8417  153.6859  148.1752 H       1  UNL111      0.0939
     45 H         124.3254  151.4384  147.2613 H       1  UNL111      0.1142
     46 H         114.6088  153.1838  145.0979 H       1  UNL111      0.0793
     47 H         114.3546  153.5811  146.8291 H       1  UNL111      0.0793
     48 H         113.5826  152.1472  146.0972 H       1  UNL111      0.0793
     49 H         122.3333  148.0155  146.1749 H       1  UNL111      0.1074
     50 H         120.8973  149.0382  146.0444 H       1  UNL111      0.1074
     51 H         121.9273  149.0953  147.5184 H       1  UNL111      0.1074
@<TRIPOS>UNITY_ATOM_ATTR
5 1
charge 1
@<TRIPOS>BOND
     1     1     8    1
     2     1    18    1
     3     2    13    1
     4     2    23    1
     5     3    21    1
     6     3    25    1
     7     4    23    2
     8     5     9    1
     9     5    16    1
    10     5    19    1
    11     6     7    1
    12     6     8    1
    13     6    10    1
    14     6    11    1
    15     7     9    1
    16     7    12    1
    17     8    13    1
    18     9    14    1
    19    10    16    1
    20    11    17   ar
    21    11    18   ar
    22    12    15    1
    23    13    15    1
    24    14    17    1
    25    17    20   ar
    26    18    21   ar
    27    20    22   ar
    28    21    22   ar
    29    23    24    1
    30     5    26    1
    31     7    27    1
    32     8    28    1
    33     9    29    1
    34    10    30    1
    35    10    31    1
    36    12    32    1
    37    12    33    1
    38    13    34    1
    39    14    35    1
    40    14    36    1
    41    15    37    1
    42    15    38    1
    43    16    39    1
    44    16    40    1
    45    19    41    1
    46    19    42    1
    47    19    43    1
    48    20    44    1
    49    22    45    1
    50    24    46    1
    51    24    47    1
    52    24    48    1
    53    25    49    1
    54    25    50    1
    55    25    51    1
@<TRIPOS>MOLECULE
5493384
 49 53 0 0 0
SMALL
GASTEIGER

@<TRIPOS>ATOM
      1 O         118.1861  153.5407  145.3267 O.3     1  UNL111     -0.5453
      2 O         117.7030  156.1433  146.1914 O.3     1  UNL111     -0.4534
      3 O         116.5121  151.3423  145.8617 O.3     1  UNL111     -0.5684
      4 N         123.3640  152.9588  145.9842 N.4     1  UNL111      0.4269
      5 C         120.5639  153.6830  145.7898 C.3     1  UNL111      0.0476
      6 C         121.4491  154.2383  146.9102 C.3     1  UNL111     -0.0179
      7 C         119.2964  154.4873  145.4337 C.3     1  UNL111      0.0848
      8 C         122.5011  153.1409  147.2497 C.3     1  UNL111     -0.0256
      9 C         121.3959  153.3822  144.5264 C.3     1  UNL111     -0.0272
     10 C         119.9298  152.4397  146.3032 C.ar    1  UNL111      0.0218
     11 C         120.6594  154.7079  148.1539 C.3     1  UNL111     -0.0396
     12 C         119.0169  155.6406  146.4306 C.3     1  UNL111      0.0443
     13 C         121.8747  151.7865  147.7209 C.3     1  UNL111     -0.0225
     14 C         119.2286  155.1915  147.8776 C.3     1  UNL111     -0.0227
     15 C         122.5898  152.4709  144.7822 C.3     1  UNL111     -0.0369
     16 C         120.5159  151.5022  147.1355 C.ar    1  UNL111     -0.0430
     17 C         118.5995  152.3908  145.9482 C.ar    1  UNL111      0.1054
     18 C         124.6162  152.1505  146.2096 C.3     1  UNL111     -0.0445
     19 C         119.7397  150.3997  147.4918 C.ar    1  UNL111     -0.0571
     20 C         117.8057  151.3093  146.2879 C.ar    1  UNL111      0.0926
     21 C         118.4018  150.2942  147.0502 C.ar    1  UNL111     -0.0130
     22 C         117.4227  157.3952  146.8001 C.3     1  UNL111     -0.0003
     23 C         115.6644  150.2758  146.2657 C.3     1  UNL111      0.0331
     24 H         123.7096  153.8971  145.7406 H       1  UNL111      0.1324
     25 H         121.9744  155.1244  146.5241 H       1  UNL111      0.0619
     26 H         119.3804  154.9399  144.4369 H       1  UNL111      0.1395
     27 H         123.1936  153.5122  148.0147 H       1  UNL111      0.0835
     28 H         121.7632  154.3315  144.1134 H       1  UNL111      0.0541
     29 H         120.7742  152.9273  143.7440 H       1  UNL111      0.0541
     30 H         121.2251  155.5294  148.6135 H       1  UNL111      0.0396
     31 H         120.6150  153.9314  148.9260 H       1  UNL111      0.0396
     32 H         119.7360  156.4419  146.2106 H       1  UNL111      0.1129
     33 H         121.7476  151.8474  148.8097 H       1  UNL111      0.0613
     34 H         122.5402  150.9398  147.5309 H       1  UNL111      0.0613
     35 H         118.9951  156.0004  148.5787 H       1  UNL111      0.0483
     36 H         118.5114  154.3980  148.1221 H       1  UNL111      0.0483
     37 H         122.2970  151.4319  144.9625 H       1  UNL111      0.0738
     38 H         123.2732  152.4933  143.9261 H       1  UNL111      0.0738
     39 H         124.3504  151.0996  146.3392 H       1  UNL111      0.0667
     40 H         125.1224  152.5447  147.0941 H       1  UNL111      0.0667
     41 H         125.2543  152.2759  145.3305 H       1  UNL111      0.0667
     42 H         120.1382  149.6241  148.1437 H       1  UNL111      0.0939
     43 H         117.8363  149.4189  147.3582 H       1  UNL111      0.1142
     44 H         116.4591  157.7485  146.4226 H       1  UNL111      0.0822
     45 H         118.1874  158.1341  146.5432 H       1  UNL111      0.0822
     46 H         117.3427  157.2919  147.8850 H       1  UNL111      0.0822
     47 H         114.6657  150.4704  145.8629 H       1  UNL111      0.1074
     48 H         115.5810  150.2287  147.3565 H       1  UNL111      0.1074
     49 H         116.0097  149.3215  145.8546 H       1  UNL111      0.1074
@<TRIPOS>UNITY_ATOM_ATTR
4 1
charge 1
@<TRIPOS>BOND
     1     1     7    1
     2     1    17    1
     3     2    12    1
     4     2    22    1
     5     3    20    1
     6     3    23    1
     7     4     8    1
     8     4    15    1
     9     4    18    1
    10     5     6    1
    11     5     7    1
    12     5     9    1
    13     5    10    1
    14     6     8    1
    15     6    11    1
    16     7    12    1
    17     8    13    1
    18     9    15    1
    19    10    16   ar
    20    10    17   ar
    21    11    14    1
    22    12    14    1
    23    13    16    1
    24    16    19   ar
    25    17    20   ar
    26    19    21   ar
    27    20    21   ar
    28     4    24    1
    29     6    25    1
    30     7    26    1
    31     8    27    1
    32     9    28    1
    33     9    29    1
    34    11    30    1
    35    11    31    1
    36    12    32    1
    37    13    33    1
    38    13    34    1
    39    14    35    1
    40    14    36    1
    41    15    37    1
    42    15    38    1
    43    18    39    1
    44    18    40    1
    45    18    41    1
    46    19    42    1
    47    21    43    1
    48    22    44    1
    49    22    45    1
    50    22    46    1
    51    23    47    1
    52    23    48    1
    53    23    49    1
@<TRIPOS>MOLECULE
21155838
 43 47 0 0 0
SMALL
GASTEIGER

@<TRIPOS>ATOM
      1 O         120.9561  151.8668  145.1092 O.3     1  UNL111     -0.5455
      2 O         120.4551  150.6575  147.5336 O.3     1  UNL111     -0.4416
      3 O         123.4896  152.9158  145.8045 O.3     1  UNL111     -0.5684
      4 N         116.9602  155.0093  145.8909 N.4     1  UNL111      0.4332
      5 C         118.8214  152.8142  145.7010 C.3     1  UNL111      0.0473
      6 C         117.6065  152.7553  146.6294 C.3     1  UNL111     -0.0178
      7 C         119.5609  151.5013  145.3780 C.3     1  UNL111      0.0840
      8 C         117.3448  154.1958  147.1234 C.3     1  UNL111     -0.0211
      9 C         119.9620  153.5132  146.3493 C.ar    1  UNL111      0.0218
     10 C         118.4265  153.6084  144.4321 C.3     1  UNL111     -0.0271
     11 C         117.7413  151.7209  147.7481 C.3     1  UNL111     -0.0398
     12 C         119.5057  150.4183  146.4921 C.3     1  UNL111      0.0437
     13 C         118.5383  154.8736  147.8624 C.3     1  UNL111     -0.0223
     14 C         118.1326  150.3581  147.1610 C.3     1  UNL111     -0.0235
     15 C         119.8846  154.5144  147.2963 C.ar    1  UNL111     -0.0430
     16 C         117.9392  155.0206  144.7549 C.3     1  UNL111     -0.0324
     17 C         121.1581  152.9851  145.8970 C.ar    1  UNL111      0.1054
     18 C         121.0939  155.0534  147.7322 C.ar    1  UNL111     -0.0571
     19 C         122.3700  153.5054  146.3074 C.ar    1  UNL111      0.0926
     20 C         122.3239  154.5656  147.2260 C.ar    1  UNL111     -0.0130
     21 C         124.7428  153.4157  146.2540 C.3     1  UNL111      0.0331
     22 H         121.3357  150.6921  147.1097 H       1  UNL111      0.2393
     23 H         116.7782  155.9829  146.1733 H       1  UNL111      0.1365
     24 H         116.0563  154.6624  145.5402 H       1  UNL111      0.1365
     25 H         116.7366  152.4315  146.0375 H       1  UNL111      0.0618
     26 H         119.1447  151.0634  144.4618 H       1  UNL111      0.1393
     27 H         116.4563  154.2326  147.7638 H       1  UNL111      0.0834
     28 H         117.6299  153.0663  143.9052 H       1  UNL111      0.0540
     29 H         119.2622  153.6813  143.7241 H       1  UNL111      0.0540
     30 H         116.7826  151.6257  148.2720 H       1  UNL111      0.0395
     31 H         118.4749  152.0350  148.4988 H       1  UNL111      0.0395
     32 H         119.7584  149.4431  146.0611 H       1  UNL111      0.1114
     33 H         118.5229  154.5395  148.9075 H       1  UNL111      0.0612
     34 H         118.4139  155.9629  147.8637 H       1  UNL111      0.0612
     35 H         117.3763  150.0296  146.4384 H       1  UNL111      0.0481
     36 H         118.1515  149.6250  147.9763 H       1  UNL111      0.0481
     37 H         118.7560  155.6922  145.0358 H       1  UNL111      0.0737
     38 H         117.4203  155.4624  143.8983 H       1  UNL111      0.0737
     39 H         121.1137  155.8376  148.4875 H       1  UNL111      0.0939
     40 H         123.2367  155.0173  147.6064 H       1  UNL111      0.1142
     41 H         125.5302  152.8361  145.7625 H       1  UNL111      0.1074
     42 H         124.8555  153.2824  147.3351 H       1  UNL111      0.1074
     43 H         124.8734  154.4649  145.9695 H       1  UNL111      0.1074
@<TRIPOS>UNITY_ATOM_ATTR
4 1
charge 1
@<TRIPOS>BOND
     1     1     7    1
     2     1    17    1
     3     2    12    1
     4     3    19    1
     5     3    21    1
     6     4     8    1
     7     4    16    1
     8     5     6    1
     9     5     7    1
    10     5     9    1
    11     5    10    1
    12     6     8    1
    13     6    11    1
    14     7    12    1
    15     8    13    1
    16     9    15   ar
    17     9    17   ar
    18    10    16    1
    19    11    14    1
    20    12    14    1
    21    13    15    1
    22    15    18   ar
    23    17    19   ar
    24    18    20   ar
    25    19    20   ar
    26     2    22    1
    27     4    23    1
    28     4    24    1
    29     6    25    1
    30     7    26    1
    31     8    27    1
    32    10    28    1
    33    10    29    1
    34    11    30    1
    35    11    31    1
    36    12    32    1
    37    13    33    1
    38    13    34    1
    39    14    35    1
    40    14    36    1
    41    16    37    1
    42    16    38    1
    43    18    39    1
    44    20    40    1
    45    21    41    1
    46    21    42    1
    47    21    43    1
@<TRIPOS>MOLECULE
411697
 44 48 0 0 0
SMALL
GASTEIGER

@<TRIPOS>ATOM
      1 O         118.3135  152.1351  147.6600 O.2     1  UNL111     -0.5307
      2 O         118.2310  149.8412  146.0305 O.2     1  UNL111     -0.4040
      3 O         116.1415  153.8378  147.0180 O.2     1  UNL111     -0.5683
      4 N         123.0590  154.0217  146.9158 N.4     1  UNL111      0.4270
      5 C         120.6074  152.4717  147.0448 C.3     1  UNL111      0.0597
      6 C         121.7258  152.1221  146.0576 C.3     1  UNL111     -0.0136
      7 C         122.4029  153.4561  145.6367 C.3     1  UNL111     -0.0250
      8 C         119.5374  151.4091  147.3600 C.3     1  UNL111      0.1355
      9 C         121.2290  153.0699  148.3270 C.3     1  UNL111     -0.0250
     10 C         119.6934  153.4747  146.4342 C.3     1  UNL111      0.0248
     11 C         121.2236  151.2857  144.8747 C.3     1  UNL111     -0.0274
     12 C         121.4302  154.4792  144.9655 C.3     1  UNL111     -0.0224
     13 C         122.0969  154.2972  148.0517 C.3     1  UNL111     -0.0366
     14 C         120.0349  154.4582  145.5274 C.3     1  UNL111     -0.0426
     15 C         120.5126  150.0357  145.3770 C.3     1  UNL111      0.0289
     16 C         119.3082  150.4058  146.2143 C.2     1  UNL111      0.1274
     17 C         118.4001  153.2640  146.8752 C.3     1  UNL111      0.1094
     18 C         123.9722  155.1957  146.6652 C.3     1  UNL111     -0.0445
     19 C         119.0110  155.3115  145.1191 C.3     1  UNL111     -0.0571
     20 C         117.3715  154.1058  146.5005 C.3     1  UNL111      0.0931
     21 C         117.6958  155.1470  145.6172 C.3     1  UNL111     -0.0129
     22 C         115.0518  154.6187  146.5451 C.3     1  UNL111      0.0331
     23 H         123.6911  153.2836  147.2555 H       1  UNL111      0.1324
     24 H         122.4705  151.5008  146.5771 H       1  UNL111      0.0627
     25 H         123.2395  153.2508  144.9579 H       1  UNL111      0.0835
     26 H         119.8150  150.8189  148.2417 H       1  UNL111      0.1606
     27 H         121.8428  152.3013  148.8155 H       1  UNL111      0.0545
     28 H         120.4564  153.3494  149.0550 H       1  UNL111      0.0545
     29 H         122.0735  150.9936  144.2467 H       1  UNL111      0.0427
     30 H         120.5430  151.8608  144.2367 H       1  UNL111      0.0427
     31 H         121.3514  154.2099  143.9041 H       1  UNL111      0.0613
     32 H         121.8288  155.4969  145.0034 H       1  UNL111      0.0613
     33 H         121.5057  155.1796  147.7877 H       1  UNL111      0.0738
     34 H         122.7009  154.5381  148.9335 H       1  UNL111      0.0738
     35 H         121.1785  149.4130  145.9839 H       1  UNL111      0.0688
     36 H         120.1764  149.4387  144.5222 H       1  UNL111      0.0688
     37 H         123.3707  156.0784  146.4389 H       1  UNL111      0.0667
     38 H         124.6350  154.9411  145.8345 H       1  UNL111      0.0667
     39 H         124.5601  155.3578  147.5728 H       1  UNL111      0.0667
     40 H         119.2004  156.1045  144.3971 H       1  UNL111      0.0939
     41 H         116.9354  155.8420  145.2696 H       1  UNL111      0.1142
     42 H         114.1397  154.2423  147.0179 H       1  UNL111      0.1074
     43 H         114.9325  154.5177  145.4612 H       1  UNL111      0.1074
     44 H         115.1684  155.6686  146.8330 H       1  UNL111      0.1074
@<TRIPOS>UNITY_ATOM_ATTR
4 1
charge 1
@<TRIPOS>BOND
     1     1     8    1
     2     1    17    1
     3     2    16    2
     4     3    20    1
     5     3    22    1
     6     4     7    1
     7     4    13    1
     8     4    18    1
     9     5     6    1
    10     5     8    1
    11     5     9    1
    12     5    10    1
    13     6     7    1
    14     6    11    1
    15     7    12    1
    16     8    16    1
    17     9    13    1
    18    10    14   ar
    19    10    17   ar
    20    11    15    1
    21    12    14    1
    22    14    19   ar
    23    15    16    1
    24    17    20   ar
    25    19    21   ar
    26    20    21   ar
    27     4    23    1
    28     6    24    1
    29     7    25    1
    30     8    26    1
    31     9    27    1
    32     9    28    1
    33    11    29    1
    34    11    30    1
    35    12    31    1
    36    12    32    1
    37    13    33    1
    38    13    34    1
    39    15    35    1
    40    15    36    1
    41    18    37    1
    42    18    38    1
    43    18    39    1
    44    19    40    1
    45    21    41    1
    46    22    42    1
    47    22    43    1
    48    22    44    1
@<TRIPOS>MOLECULE
5360241
 47 51 0 0 0
SMALL
GASTEIGER

@<TRIPOS>ATOM
      1 O         118.2825  154.1650  145.0575 O.3     1  UNL111     -0.5436
      2 O         122.8307  154.5182  145.8901 O.3     1  UNL111     -0.4361
      3 O         118.4792  155.4777  147.4718 O.3     1  UNL111     -0.4412
      4 O         115.9728  152.6993  145.7752 O.3     1  UNL111     -0.5684
      5 N         122.8397  151.9330  145.9963 N.4     1  UNL111      0.4300
      6 C         120.5453  153.6679  145.7241 C.3     1  UNL111      0.0716
      7 C         121.7083  154.0106  146.6700 C.3     1  UNL111      0.0452
      8 C         122.2202  152.6429  147.2341 C.3     1  UNL111      0.0007
      9 C         119.5727  154.8023  145.3462 C.3     1  UNL111      0.0914
     10 C         121.0779  152.8945  144.4884 C.3     1  UNL111     -0.0197
     11 C         119.5410  152.7893  146.3834 C.ar    1  UNL111      0.0306
     12 C         121.3596  155.0455  147.7429 C.3     1  UNL111     -0.0145
     13 C         119.3677  155.8971  146.4337 C.3     1  UNL111      0.0465
     14 C         121.1608  151.7666  147.9582 C.3     1  UNL111     -0.0148
     15 C         120.6732  156.2774  147.1273 C.3     1  UNL111     -0.0161
     16 C         121.8720  151.6404  144.8748 C.3     1  UNL111     -0.0337
     17 C         119.7841  151.8526  147.3649 C.ar    1  UNL111     -0.0396
     18 C         118.2764  153.0603  145.8897 C.ar    1  UNL111      0.1074
     19 C         123.7323  150.7788  146.3219 C.3     1  UNL111     -0.0427
     20 C         118.6886  151.1094  147.8026 C.ar    1  UNL111     -0.0567
     21 C         117.1737  152.3422  146.3086 C.ar    1  UNL111      0.0928
     22 C         117.3987  151.3409  147.2651 C.ar    1  UNL111     -0.0130
     23 C         114.8145  152.0757  146.3160 C.3     1  UNL111      0.0331
     24 H         122.8172  155.4947  145.8819 H       1  UNL111      0.2435
     25 H         117.6226  155.2744  147.0451 H       1  UNL111      0.2393
     26 H         123.4518  152.6833  145.6217 H       1  UNL111      0.1349
     27 H         123.0755  152.8155  147.8992 H       1  UNL111      0.0967
     28 H         119.9207  155.2947  144.4294 H       1  UNL111      0.1414
     29 H         121.7187  153.5556  143.8905 H       1  UNL111      0.0561
     30 H         120.2635  152.5929  143.8164 H       1  UNL111      0.0561
     31 H         122.2741  155.3787  148.2489 H       1  UNL111      0.0523
     32 H         120.7112  154.6104  148.5116 H       1  UNL111      0.0523
     33 H         118.9119  156.7818  145.9750 H       1  UNL111      0.1119
     34 H         121.0869  152.1239  148.9934 H       1  UNL111      0.0633
     35 H         121.4798  150.7206  148.0023 H       1  UNL111      0.0633
     36 H         121.3361  156.7848  146.4191 H       1  UNL111      0.0501
     37 H         120.4655  156.9884  147.9366 H       1  UNL111      0.0501
     38 H         121.2251  150.8190  145.1986 H       1  UNL111      0.0743
     39 H         122.4629  151.2945  144.0196 H       1  UNL111      0.0743
     40 H         123.1196  149.9376  146.6529 H       1  UNL111      0.0670
     41 H         124.4285  151.0911  147.1042 H       1  UNL111      0.0670
     42 H         124.2869  150.5163  145.4170 H       1  UNL111      0.0670
     43 H         118.8028  150.3571  148.5817 H       1  UNL111      0.0940
     44 H         116.5800  150.7361  147.6467 H       1  UNL111      0.1142
     45 H         113.9395  152.5117  145.8245 H       1  UNL111      0.1074
     46 H         114.7255  152.2711  147.3900 H       1  UNL111      0.1074
     47 H         114.8139  151.0008  146.1086 H       1  UNL111      0.1074
@<TRIPOS>UNITY_ATOM_ATTR
5 1
charge 1
@<TRIPOS>BOND
     1     1     9    1
     2     1    18    1
     3     2     7    1
     4     3    13    1
     5     4    21    1
     6     4    23    1
     7     5     8    1
     8     5    16    1
     9     5    19    1
    10     6     7    1
    11     6     9    1
    12     6    10    1
    13     6    11    1
    14     7     8    1
    15     7    12    1
    16     8    14    1
    17     9    13    1
    18    10    16    1
    19    11    17   ar
    20    11    18   ar
    21    12    15    1
    22    13    15    1
    23    14    17    1
    24    17    20   ar
    25    18    21   ar
    26    20    22   ar
    27    21    22   ar
    28     2    24    1
    29     3    25    1
    30     5    26    1
    31     8    27    1
    32     9    28    1
    33    10    29    1
    34    10    30    1
    35    12    31    1
    36    12    32    1
    37    13    33    1
    38    14    34    1
    39    14    35    1
    40    15    36    1
    41    15    37    1
    42    16    38    1
    43    16    39    1
    44    19    40    1
    45    19    41    1
    46    19    42    1
    47    20    43    1
    48    22    44    1
    49    23    45    1
    50    23    46    1
    51    23    47    1
@<TRIPOS>MOLECULE
5464304
 57 62 0 0 0
SMALL
GASTEIGER

@<TRIPOS>ATOM
      1 O         119.2338  154.0770  144.2529 O.2     1  UNL111     -0.5411
      2 O         121.1505  152.4121  145.3793 O.3     1  UNL111     -0.4994
      3 O         120.3054  156.5445  145.1501 O.2     1  UNL111     -0.5684
      4 O         122.8196  151.1092  144.4830 O.2     1  UNL111     -0.3205
      5 N         115.6900  151.9186  147.3396 N.4     1  UNL111      0.4269
      6 N         124.8763  151.9185  148.0775 N.pl3   1  UNL111     -0.3003
      7 C         117.9081  152.5579  145.5698 C.3     1  UNL111      0.0510
      8 C         117.8516  151.2535  146.3663 C.3     1  UNL111     -0.0167
      9 C         118.8914  152.6579  144.3844 C.3     1  UNL111      0.0986
     10 C         117.1494  151.5644  147.7118 C.3     1  UNL111     -0.0254
     11 C         116.4606  152.9511  145.1851 C.3     1  UNL111     -0.0266
     12 C         118.4876  153.6638  146.3743 C.3     1  UNL111      0.0226
     13 C         119.2059  150.5605  146.4962 C.3     1  UNL111     -0.0362
     14 C         120.1791  151.7875  144.5091 C.3     1  UNL111      0.0961
     15 C         117.8354  152.6865  148.5576 C.3     1  UNL111     -0.0225
     16 C         119.8365  150.4118  145.1043 C.3     1  UNL111     -0.0087
     17 C         115.5423  153.0997  146.4015 C.3     1  UNL111     -0.0368
     18 C         118.4077  153.8131  147.7425 C.3     1  UNL111     -0.0429
     19 C         119.1511  154.5531  145.5468 C.3     1  UNL111      0.1065
     20 C         114.7669  152.0241  148.5253 C.3     1  UNL111     -0.0445
     21 C         118.9588  154.9782  148.2734 C.3     1  UNL111     -0.0571
     22 C         119.6880  155.7244  146.0444 C.3     1  UNL111      0.0927
     23 C         119.5717  155.9357  147.4275 C.3     1  UNL111     -0.0130
     24 C         122.4214  151.9429  145.2734 C.2     1  UNL111      0.2687
     25 C         123.2125  152.4452  146.4073 C.3     1  UNL111      0.0996
     26 C         120.8400  157.7654  145.6448 C.3     1  UNL111      0.0331
     27 C         123.0390  153.7145  146.9584 C.3     1  UNL111     -0.0263
     28 C         124.1458  151.5956  146.9832 C.3     1  UNL111      0.0209
     29 C         123.7935  154.0773  148.0720 C.3     1  UNL111     -0.0510
     30 C         124.6867  153.1527  148.5939 C.3     1  UNL111     -0.0230
     31 H         115.3357  151.1044  146.8189 H       1  UNL111      0.1324
     32 H         117.2235  150.5404  145.8102 H       1  UNL111      0.0621
     33 H         118.3756  152.3551  143.4637 H       1  UNL111      0.1454
     34 H         117.0732  150.6510  148.3139 H       1  UNL111      0.0835
     35 H         116.0481  152.1807  144.5197 H       1  UNL111      0.0542
     36 H         116.4341  153.8883  144.6142 H       1  UNL111      0.0542
     37 H         119.0657  149.5666  146.9374 H       1  UNL111      0.0404
     38 H         119.8767  151.1067  147.1686 H       1  UNL111      0.0404
     39 H         120.6167  151.6901  143.5076 H       1  UNL111      0.1425
     40 H         118.6733  152.2271  149.0980 H       1  UNL111      0.0613
     41 H         117.1540  153.0866  149.3141 H       1  UNL111      0.0613
     42 H         119.1556  149.8733  144.4344 H       1  UNL111      0.0540
     43 H         120.7375  149.7974  145.2050 H       1  UNL111      0.0540
     44 H         115.7480  154.0103  146.9727 H       1  UNL111      0.0738
     45 H         114.4946  153.1241  146.0818 H       1  UNL111      0.0738
     46 H         114.9741  152.9522  149.0615 H       1  UNL111      0.0667
     47 H         114.9287  151.1512  149.1627 H       1  UNL111      0.0667
     48 H         113.7408  152.0221  148.1477 H       1  UNL111      0.0667
     49 H         118.9400  155.1638  149.3462 H       1  UNL111      0.0939
     50 H         119.9807  156.8286  147.8934 H       1  UNL111      0.1142
     51 H         121.2765  158.3068  144.8000 H       1  UNL111      0.1074
     52 H         121.6386  157.5792  146.3704 H       1  UNL111      0.1074
     53 H         120.0542  158.3949  146.0753 H       1  UNL111      0.1074
     54 H         122.3355  154.4181  146.5236 H       1  UNL111      0.1017
     55 H         124.3271  150.5983  146.5889 H       1  UNL111      0.1456
     56 H         123.6915  155.0583  148.5228 H       1  UNL111      0.0990
     57 H         125.2935  153.3867  149.4648 H       1  UNL111      0.1342
@<TRIPOS>UNITY_ATOM_ATTR
5 1
charge 1
@<TRIPOS>BOND
     1     1     9    1
     2     1    19    1
     3     2    14    1
     4     2    24    1
     5     3    22    1
     6     3    26    1
     7     4    24    2
     8     5    10    1
     9     5    17    1
    10     5    20    1
    11     6    28   ar
    12     6    30   ar
    13     7     8    1
    14     7     9    1
    15     7    11    1
    16     7    12    1
    17     8    10    1
    18     8    13    1
    19     9    14    1
    20    10    15    1
    21    11    17    1
    22    12    18   ar
    23    12    19   ar
    24    13    16    1
    25    14    16    1
    26    15    18    1
    27    18    21   ar
    28    19    22   ar
    29    21    23   ar
    30    22    23   ar
    31    24    25    1
    32    25    27   ar
    33    25    28   ar
    34    27    29   ar
    35    29    30   ar
    36     5    31    1
    37     8    32    1
    38     9    33    1
    39    10    34    1
    40    11    35    1
    41    11    36    1
    42    13    37    1
    43    13    38    1
    44    14    39    1
    45    15    40    1
    46    15    41    1
    47    16    42    1
    48    16    43    1
    49    17    44    1
    50    17    45    1
    51    20    46    1
    52    20    47    1
    53    20    48    1
    54    21    49    1
    55    23    50    1
    56    26    51    1
    57    26    52    1
    58    26    53    1
    59    27    54    1
    60    28    55    1
    61    29    56    1
    62    30    57    1
@<TRIPOS>MOLECULE
15978609
 34 35 0 0 0
SMALL
GASTEIGER

@<TRIPOS>ATOM
      1 O         116.3374  153.7785  145.8312 O.3     1  UNL1111    -0.4380
      2 O         114.2545  153.8220  144.9018 O.2     1  UNL1111    -0.3365
      3 N         116.7361  152.8208  148.0438 N.2     1  UNL1111     0.0029
      4 N         116.7880  153.9292  148.6071 N.2     1  UNL1111    -0.2170
      5 N         122.7761  153.6834  146.0341 N.pl3   1  UNL1111    -0.2704
      6 N         123.6653  152.8214  146.5998 N.2     1  UNL1111    -0.2008
      7 N         116.8288  154.9380  149.1347 N.2     1  UNL1111    -0.1495
      8 N         126.4710  151.2516  147.6007 N.1     1  UNL1111    -0.2538
      9 N         125.8463  155.0240  145.0883 N.1     1  UNL1111    -0.2538
     10 C         116.6173  151.4749  146.0245 C.3     1  UNL1111     0.0727
     11 C         117.0860  152.8286  146.6062 C.3     1  UNL1111     0.2736
     12 C         115.1392  151.7568  145.7985 C.3     1  UNL1111     0.0874
     13 C         118.5911  153.0592  146.4458 C.3     1  UNL1111     0.0383
     14 C         117.2719  151.0716  144.6935 C.3     1  UNL1111    -0.0368
     15 C         115.1599  153.2120  145.4452 C.2     1  UNL1111     0.2368
     16 C         119.5081  152.1971  147.0711 C.3     1  UNL1111    -0.0441
     17 C         119.1025  154.1351  145.7059 C.3     1  UNL1111    -0.0441
     18 C         120.8873  152.3942  146.9400 C.3     1  UNL1111    -0.0457
     19 C         120.4839  154.3290  145.5810 C.3     1  UNL1111    -0.0457
     20 C         121.3961  153.4610  146.1928 C.3     1  UNL1111     0.0061
     21 C         124.9419  153.0100  146.4541 C.2     1  UNL1111     0.2790
     22 C         125.7730  152.0312  147.0937 C.1     1  UNL1111     0.1688
     23 C         125.4596  154.1167  145.7038 C.1     1  UNL1111     0.1688
     24 H         123.0302  154.5047  145.4838 H       1  UNL1111     0.2351
     25 H         116.7527  150.6473  146.7316 H       1  UNL1111     0.0849
     26 H         114.5545  151.6243  146.7140 H       1  UNL1111     0.0927
     27 H         114.7095  151.1633  144.9877 H       1  UNL1111     0.0927
     28 H         117.2181  151.8723  143.9482 H       1  UNL1111     0.0333
     29 H         116.7730  150.1906  144.2744 H       1  UNL1111     0.0333
     30 H         118.3241  150.8053  144.8313 H       1  UNL1111     0.0333
     31 H         119.1569  151.3583  147.6699 H       1  UNL1111     0.0970
     32 H         118.4353  154.8413  145.2140 H       1  UNL1111     0.0970
     33 H         121.5643  151.7019  147.4347 H       1  UNL1111     0.1012
     34 H         120.8368  155.1742  144.9946 H       1  UNL1111     0.1012
@<TRIPOS>UNITY_ATOM_ATTR
4 1
charge 1
7 1
charge -1
@<TRIPOS>BOND
     1     1    11    1
     2     1    15    1
     3     2    15    2
     4     3     4    2
     5     3    11    1
     6     4     7    2
     7     5     6    1
     8     5    20    1
     9     6    21    2
    10     8    22    3
    11     9    23    3
    12    10    11    1
    13    10    12    1
    14    10    14    1
    15    11    13    1
    16    12    15    1
    17    13    16   ar
    18    13    17   ar
    19    16    18   ar
    20    17    19   ar
    21    18    20   ar
    22    19    20   ar
    23    21    22    1
    24    21    23    1
    25     5    24    1
    26    10    25    1
    27    12    26    1
    28    12    27    1
    29    14    28    1
    30    14    29    1
    31    14    30    1
    32    16    31    1
    33    17    32    1
    34    18    33    1
    35    19    34    1
@<TRIPOS>MOLECULE
5288826
 41 45 0 0 0
SMALL
GASTEIGER

@<TRIPOS>ATOM
      1 O         117.8999  152.5787  147.6826 O.3     1  UNL111     -0.5439
      2 O         117.0582  150.6864  146.0471 O.3     1  UNL111     -0.4348
      3 O         116.2982  154.9473  147.1260 O.3     1  UNL111     -0.5485
      4 N         123.0247  153.1444  146.8633 N.4     1  UNL111      0.4275
      5 C         120.2425  152.3197  147.0682 C.3     1  UNL111      0.0532
      6 C         121.1661  151.7282  145.9927 C.3     1  UNL111     -0.0026
      7 C         122.1784  152.8505  145.6005 C.3     1  UNL111     -0.0206
      8 C         118.9350  151.5621  147.4074 C.3     1  UNL111      0.0902
      9 C         121.0613  152.6622  148.3314 C.3     1  UNL111     -0.0259
     10 C         119.6159  153.5667  146.5398 C.ar    1  UNL111      0.0232
     11 C         121.5061  154.1359  145.0255 C.3     1  UNL111     -0.0213
     12 C         122.2240  153.6149  148.0565 C.3     1  UNL111     -0.0364
     13 C         120.1850  154.4721  145.6606 C.ar    1  UNL111     -0.0425
     14 C         118.4498  150.5676  146.3109 C.3     1  UNL111      0.0605
     15 C         120.4007  151.1451  144.8356 C.2     1  UNL111     -0.0869
     16 C         118.3205  153.6824  146.9889 C.ar    1  UNL111      0.1050
     17 C         119.1707  150.6334  144.9952 C.2     1  UNL111     -0.0672
     18 C         124.2148  154.0335  146.6052 C.3     1  UNL111     -0.0442
     19 C         119.4262  155.5960  145.3221 C.ar    1  UNL111     -0.0573
     20 C         117.5697  154.7905  146.6764 C.ar    1  UNL111      0.0917
     21 C         118.1291  155.7634  145.8490 C.ar    1  UNL111     -0.0140
     22 H         116.7786  151.5753  146.3321 H       1  UNL111      0.2424
     23 H         116.0909  154.1838  147.6956 H       1  UNL111      0.3393
     24 H         123.4391  152.2421  147.1353 H       1  UNL111      0.1328
     25 H         121.7363  150.8913  146.4218 H       1  UNL111      0.0720
     26 H         122.8969  152.4622  144.8679 H       1  UNL111      0.0854
     27 H         119.0526  150.9951  148.3399 H       1  UNL111      0.1417
     28 H         121.4585  151.7313  148.7579 H       1  UNL111      0.0544
     29 H         120.4262  153.1069  149.1087 H       1  UNL111      0.0544
     30 H         121.3100  153.9547  143.9603 H       1  UNL111      0.0615
     31 H         122.1741  154.9999  145.0800 H       1  UNL111      0.0615
     32 H         121.8903  154.6383  147.8587 H       1  UNL111      0.0738
     33 H         122.9060  153.6351  148.9138 H       1  UNL111      0.0738
     34 H         118.6032  149.5495  146.6898 H       1  UNL111      0.1221
     35 H         120.8681  151.0889  143.8539 H       1  UNL111      0.0812
     36 H         118.6624  150.1803  144.1444 H       1  UNL111      0.0909
     37 H         123.8725  155.0588  146.4512 H       1  UNL111      0.0667
     38 H         124.7415  153.6529  145.7267 H       1  UNL111      0.0667
     39 H         124.8660  153.9777  147.4818 H       1  UNL111      0.0667
     40 H         119.8088  156.3410  144.6266 H       1  UNL111      0.0939
     41 H         117.5406  156.6374  145.5766 H       1  UNL111      0.1139
@<TRIPOS>UNITY_ATOM_ATTR
4 1
charge 1
@<TRIPOS>BOND
     1     1     8    1
     2     1    16    1
     3     2    14    1
     4     3    20    1
     5     4     7    1
     6     4    12    1
     7     4    18    1
     8     5     6    1
     9     5     8    1
    10     5     9    1
    11     5    10    1
    12     6     7    1
    13     6    15    1
    14     7    11    1
    15     8    14    1
    16     9    12    1
    17    10    13   ar
    18    10    16   ar
    19    11    13    1
    20    13    19   ar
    21    14    17    1
    22    15    17    2
    23    16    20   ar
    24    19    21   ar
    25    20    21   ar
    26     2    22    1
    27     3    23    1
    28     4    24    1
    29     6    25    1
    30     7    26    1
    31     8    27    1
    32     9    28    1
    33     9    29    1
    34    11    30    1
    35    11    31    1
    36    12    32    1
    37    12    33    1
    38    14    34    1
    39    15    35    1
    40    17    36    1
    41    18    37    1
    42    18    38    1
    43    18    39    1
    44    19    40    1
    45    21    41    1
@<TRIPOS>MOLECULE
137699930
 47 51 0 0 0
SMALL
GASTEIGER

@<TRIPOS>ATOM
      1 O         121.5460  154.1254  147.7910 O.2     1  UNL1111    -0.5436
      2 O         117.0941  154.6306  146.7536 O.3     1  UNL1111    -0.4363
      3 O         116.7345  150.4437  146.2045 O.co2   1  UNL1111    -0.7548
      4 O         121.5245  155.5075  145.4405 O.3     1  UNL1111    -0.4412
      5 O         123.8767  152.6447  147.1437 O.2     1  UNL1111    -0.5684
      6 N         117.0298  151.7086  146.6929 N.3     1  UNL1111     0.4052
      7 C         119.3007  153.6209  147.0548 C.3     1  UNL1111     0.0712
      8 C         118.1703  153.9546  146.0761 C.3     1  UNL1111     0.0424
      9 C         117.6445  152.5732  145.5469 C.3     1  UNL1111    -0.0177
     10 C         120.2600  154.7579  147.4569 C.3     1  UNL1111     0.0914
     11 C         118.7184  152.8534  148.2694 C.3     1  UNL1111    -0.0224
     12 C         120.3308  152.7573  146.4190 C.3     1  UNL1111     0.0306
     13 C         118.6149  154.9242  144.9656 C.3     1  UNL1111    -0.0147
     14 C         118.0027  151.5607  147.8533 C.3     1  UNL1111    -0.0522
     15 C         118.7526  151.7745  144.7724 C.3     1  UNL1111    -0.0176
     16 C         120.5041  155.8602  146.3791 C.3     1  UNL1111     0.0465
     17 C         119.2623  156.1908  145.5530 C.3     1  UNL1111    -0.0161
     18 C         120.1180  151.8456  145.4074 C.3     1  UNL1111    -0.0398
     19 C         121.5776  153.0211  146.9561 C.3     1  UNL1111     0.1074
     20 C         115.7216  152.2663  147.1945 C.3     1  UNL1111    -0.0612
     21 C         121.2247  151.1089  144.9908 C.3     1  UNL1111    -0.0567
     22 C         122.6907  152.3022  146.5655 C.3     1  UNL1111     0.0928
     23 C         122.4954  151.3219  145.5792 C.3     1  UNL1111    -0.0130
     24 C         125.0133  151.8738  146.7775 C.3     1  UNL1111     0.0331
     25 H         117.4182  155.4321  147.1963 H       1  UNL1111     0.2435
     26 H         122.2951  155.2068  145.9612 H       1  UNL1111     0.2393
     27 H         116.7950  152.7246  144.8685 H       1  UNL1111     0.0934
     28 H         119.8806  155.2499  148.3616 H       1  UNL1111     0.1414
     29 H         118.0226  153.5009  148.8164 H       1  UNL1111     0.0559
     30 H         119.5044  152.5912  148.9900 H       1  UNL1111     0.0559
     31 H         117.7425  155.2300  144.3745 H       1  UNL1111     0.0523
     32 H         119.3181  154.4536  144.2706 H       1  UNL1111     0.0523
     33 H         118.7215  150.7920  147.5478 H       1  UNL1111     0.0709
     34 H         117.4292  151.1433  148.6895 H       1  UNL1111     0.0709
     35 H         118.8382  152.2051  143.7666 H       1  UNL1111     0.0631
     36 H         118.4750  150.7243  144.6391 H       1  UNL1111     0.0631
     37 H         120.8647  156.7659  146.8802 H       1  UNL1111     0.1119
     38 H         118.5446  156.7483  146.1632 H       1  UNL1111     0.0501
     39 H         119.5387  156.8479  144.7187 H       1  UNL1111     0.0501
     40 H         115.1296  152.5799  146.3317 H       1  UNL1111     0.0636
     41 H         115.9002  153.0805  147.8948 H       1  UNL1111     0.0636
     42 H         115.2073  151.4567  147.7234 H       1  UNL1111     0.0636
     43 H         121.1218  150.3694  144.1989 H       1  UNL1111     0.0940
     44 H         123.3210  150.7204  145.2105 H       1  UNL1111     0.1142
     45 H         125.8686  152.2465  147.3493 H       1  UNL1111     0.1074
     46 H         125.2456  151.9955  145.7144 H       1  UNL1111     0.1074
     47 H         124.8757  150.8181  147.0341 H       1  UNL1111     0.1074
@<TRIPOS>UNITY_ATOM_ATTR
3 1
charge -1
6 1
charge 1
@<TRIPOS>BOND
     1     1    10    1
     2     1    19    1
     3     2     8    1
     4     3     6    1
     5     4    16    1
     6     5    22    1
     7     5    24    1
     8     6     9    1
     9     6    14    1
    10     6    20    1
    11     7     8    1
    12     7    10    1
    13     7    11    1
    14     7    12    1
    15     8     9    1
    16     8    13    1
    17     9    15    1
    18    10    16    1
    19    11    14    1
    20    12    18   ar
    21    12    19   ar
    22    13    17    1
    23    15    18    1
    24    16    17    1
    25    18    21   ar
    26    19    22   ar
    27    21    23   ar
    28    22    23   ar
    29     2    25    1
    30     4    26    1
    31     9    27    1
    32    10    28    1
    33    11    29    1
    34    11    30    1
    35    13    31    1
    36    13    32    1
    37    14    33    1
    38    14    34    1
    39    15    35    1
    40    15    36    1
    41    16    37    1
    42    17    38    1
    43    17    39    1
    44    20    40    1
    45    20    41    1
    46    20    42    1
    47    21    43    1
    48    23    44    1
    49    24    45    1
    50    24    46    1
    51    24    47    1
