@<TRIPOS>MOLECULE
13505
 67 70 0 0 0
SMALL
GASTEIGER

@<TRIPOS>ATOM
      1 O         125.0507  154.7857  147.3688 O.3     1  UNL111     -0.5255
      2 O         124.8025  155.5622  145.2244 O.2     1  UNL111     -0.3339
      3 N         120.3750  153.6643  145.5557 N.4     1  UNL111      0.4272
      4 N         116.1737  153.1375  143.1764 N.1     1  UNL111     -0.2854
      5 C         123.3214  153.7951  146.0415 C.3     1  UNL111      0.1029
      6 C         122.6523  153.9504  144.6446 C.3     1  UNL111     -0.0116
      7 C         122.2561  154.2362  147.0822 C.3     1  UNL111     -0.0116
      8 C         121.3620  153.1577  144.5221 C.3     1  UNL111     -0.0339
      9 C         120.9277  153.5015  146.9512 C.3     1  UNL111     -0.0339
     10 C         119.0133  152.9921  145.3811 C.3     1  UNL111     -0.0328
     11 C         123.8875  152.3737  146.2294 C.3     1  UNL111     -0.0351
     12 C         124.4759  154.8125  146.1349 C.2     1  UNL111      0.2332
     13 C         117.9026  153.8720  145.9819 C.3     1  UNL111     -0.0093
     14 C         116.4525  153.2776  145.8092 C.3     1  UNL111      0.1126
     15 C         123.6886  151.6195  147.3992 C.3     1  UNL111     -0.0738
     16 C         124.6999  151.8036  145.2274 C.3     1  UNL111     -0.0738
     17 C         116.4523  151.8924  146.5085 C.3     1  UNL111     -0.0318
     18 C         115.3479  154.1821  146.4091 C.3     1  UNL111     -0.0318
     19 C         124.2225  150.3334  147.5332 C.3     1  UNL111     -0.0848
     20 C         125.2338  150.5196  145.3631 C.3     1  UNL111     -0.0848
     21 C         116.2238  153.2030  144.3343 C.1     1  UNL111      0.0627
     22 C         124.9864  149.7802  146.5124 C.3     1  UNL111     -0.0866
     23 C         126.1592  155.6819  147.5306 C.3     1  UNL111      0.0467
     24 C         116.3441  150.6820  145.7971 C.3     1  UNL111     -0.0720
     25 C         115.6013  155.4466  146.9721 C.3     1  UNL111     -0.0720
     26 C         116.5873  151.8191  147.9121 C.3     1  UNL111     -0.0720
     27 C         114.0080  153.7346  146.3892 C.3     1  UNL111     -0.0720
     28 C         126.7012  155.5103  148.9358 C.3     1  UNL111     -0.0318
     29 C         116.3844  149.4535  146.4625 C.3     1  UNL111     -0.0843
     30 C         114.5625  156.2228  147.4967 C.3     1  UNL111     -0.0843
     31 C         116.6259  150.5894  148.5715 C.3     1  UNL111     -0.0843
     32 C         112.9744  154.5126  146.9141 C.3     1  UNL111     -0.0843
     33 C         116.5288  149.4073  147.8457 C.3     1  UNL111     -0.0865
     34 C         113.2523  155.7564  147.4684 C.3     1  UNL111     -0.0865
     35 H         120.2467  154.6689  145.3667 H       1  UNL111      0.1321
     36 H         123.3266  153.6659  143.8295 H       1  UNL111      0.0586
     37 H         122.4221  155.0106  144.4628 H       1  UNL111      0.0586
     38 H         122.0639  155.3129  146.9632 H       1  UNL111      0.0586
     39 H         122.6276  154.1298  148.1085 H       1  UNL111      0.0586
     40 H         120.9131  153.3263  143.5374 H       1  UNL111      0.0742
     41 H         121.4969  152.0827  144.6809 H       1  UNL111      0.0742
     42 H         121.0130  152.4290  147.1497 H       1  UNL111      0.0742
     43 H         120.2022  153.9316  147.6471 H       1  UNL111      0.0742
     44 H         119.0863  152.0039  145.8448 H       1  UNL111      0.0747
     45 H         118.8651  152.8701  144.3041 H       1  UNL111      0.0747
     46 H         117.9563  154.8564  145.4949 H       1  UNL111      0.0610
     47 H         118.1091  154.0430  147.0450 H       1  UNL111      0.0610
     48 H         123.1442  152.0078  148.2548 H       1  UNL111      0.0905
     49 H         124.9650  152.3564  144.3272 H       1  UNL111      0.0905
     50 H         124.0608  149.7676  148.4488 H       1  UNL111      0.0877
     51 H         125.8621  150.1043  144.5775 H       1  UNL111      0.0877
     52 H         125.4128  148.7858  146.6244 H       1  UNL111      0.0874
     53 H         125.8211  156.7140  147.3865 H       1  UNL111      0.1149
     54 H         126.9387  155.4414  146.7991 H       1  UNL111      0.1149
     55 H         116.2112  150.6545  144.7163 H       1  UNL111      0.0911
     56 H         116.5987  155.8718  147.0211 H       1  UNL111      0.0911
     57 H         116.6350  152.7234  148.5180 H       1  UNL111      0.0911
     58 H         113.7479  152.7651  145.9638 H       1  UNL111      0.0911
     59 H         125.9242  155.7238  149.6773 H       1  UNL111      0.0426
     60 H         127.5499  156.1771  149.1112 H       1  UNL111      0.0426
     61 H         127.0230  154.4767  149.1010 H       1  UNL111      0.0426
     62 H         116.2855  148.5267  145.8999 H       1  UNL111      0.0878
     63 H         114.7736  157.1997  147.9271 H       1  UNL111      0.0878
     64 H         116.7098  150.5523  149.6558 H       1  UNL111      0.0878
     65 H         111.9501  154.1467  146.8879 H       1  UNL111      0.0878
     66 H         116.5427  148.4485  148.3599 H       1  UNL111      0.0874
     67 H         112.4466  156.3635  147.8748 H       1  UNL111      0.0874
@<TRIPOS>UNITY_ATOM_ATTR
3 1
charge 1
@<TRIPOS>BOND
     1     1    12    1
     2     1    23    1
     3     2    12    2
     4     3     8    1
     5     3     9    1
     6     3    10    1
     7     4    21    3
     8     5     6    1
     9     5     7    1
    10     5    11    1
    11     5    12    1
    12     6     8    1
    13     7     9    1
    14    10    13    1
    15    11    15   ar
    16    11    16   ar
    17    13    14    1
    18    14    17    1
    19    14    18    1
    20    14    21    1
    21    15    19   ar
    22    16    20   ar
    23    17    24   ar
    24    17    26   ar
    25    18    25   ar
    26    18    27   ar
    27    19    22   ar
    28    20    22   ar
    29    23    28    1
    30    24    29   ar
    31    25    30   ar
    32    26    31   ar
    33    27    32   ar
    34    29    33   ar
    35    30    34   ar
    36    31    33   ar
    37    32    34   ar
    38     3    35    1
    39     6    36    1
    40     6    37    1
    41     7    38    1
    42     7    39    1
    43     8    40    1
    44     8    41    1
    45     9    42    1
    46     9    43    1
    47    10    44    1
    48    10    45    1
    49    13    46    1
    50    13    47    1
    51    15    48    1
    52    16    49    1
    53    19    50    1
    54    20    51    1
    55    22    52    1
    56    23    53    1
    57    23    54    1
    58    24    55    1
    59    25    56    1
    60    26    57    1
    61    27    58    1
    62    28    59    1
    63    28    60    1
    64    28    61    1
    65    29    62    1
    66    30    63    1
    67    31    64    1
    68    32    65    1
    69    33    66    1
    70    34    67    1
