@<TRIPOS>MOLECULE
58619550
 77 80 0 0 0
SMALL
GASTEIGER

@<TRIPOS>ATOM
      1 O         119.7028  148.1863  143.9617 O.2     1  UNL111     -0.5643
      2 O         126.2110  153.1560  145.6501 O.2     1  UNL111     -0.3686
      3 N         118.9885  152.7360  146.4185 N.4     1  UNL111      0.4345
      4 N         116.6097  154.4633  146.0809 N.4     1  UNL111      0.4304
      5 N         125.8668  155.2808  146.5143 N.am    1  UNL111     -0.3261
      6 C         117.5672  152.1462  146.6120 C.3     1  UNL111     -0.0294
      7 C         118.0142  155.0572  145.9175 C.3     1  UNL111     -0.0315
      8 C         119.0551  154.2333  146.7399 C.3     1  UNL111     -0.0265
      9 C         116.5290  152.9658  145.7821 C.3     1  UNL111     -0.0286
     10 C         120.1247  151.9229  147.1129 C.3     1  UNL111      0.0228
     11 C         115.5220  155.2626  145.3536 C.3     1  UNL111     -0.0103
     12 C         117.1758  152.0943  148.0898 C.3     1  UNL111     -0.0536
     13 C         118.4108  155.1392  144.4424 C.3     1  UNL111     -0.0540
     14 C         121.5123  152.5035  146.8458 C.3     1  UNL111     -0.0548
     15 C         120.0656  150.4339  146.8070 C.3     1  UNL111     -0.0411
     16 C         114.1651  155.0383  145.9593 C.3     1  UNL111     -0.0694
     17 C         122.0054  152.7016  145.5413 C.3     1  UNL111     -0.0640
     18 C         122.3486  152.8235  147.9352 C.3     1  UNL111     -0.0640
     19 C         119.9329  149.9451  145.4964 C.3     1  UNL111     -0.0172
     20 C         120.1612  149.5003  147.8548 C.3     1  UNL111     -0.0659
     21 C         113.8311  155.6268  147.1904 C.3     1  UNL111     -0.0745
     22 C         113.2232  154.2183  145.3194 C.3     1  UNL111     -0.0745
     23 C         123.2865  153.2206  145.3360 C.3     1  UNL111     -0.0455
     24 C         123.6325  153.3368  147.7280 C.3     1  UNL111     -0.0455
     25 C         119.8622  148.5763  145.2559 C.3     1  UNL111      0.0364
     26 C         120.0983  148.1271  147.5978 C.3     1  UNL111     -0.0670
     27 C         124.0892  153.5546  146.4282 C.3     1  UNL111      0.0417
     28 C         119.9421  147.6610  146.2941 C.3     1  UNL111     -0.0318
     29 C         112.5860  155.3864  147.7722 C.3     1  UNL111     -0.0834
     30 C         111.9801  153.9813  145.9068 C.3     1  UNL111     -0.0834
     31 C         111.6644  154.5612  147.1329 C.3     1  UNL111     -0.0861
     32 C         125.4772  153.9870  146.1775 C.2     1  UNL111      0.1798
     33 C         124.9865  156.3323  147.0263 C.3     1  UNL111     -0.0082
     34 C         127.2645  155.6515  146.2708 C.3     1  UNL111     -0.0082
     35 C         124.3404  157.1222  145.8983 C.3     1  UNL111     -0.0516
     36 C         128.1230  155.4265  147.5053 C.3     1  UNL111     -0.0516
     37 H         119.8242  147.2198  143.9025 H       1  UNL111      0.3342
     38 H         119.2242  152.6203  145.4259 H       1  UNL111      0.1471
     39 H         116.3430  154.5842  147.0695 H       1  UNL111      0.1425
     40 H         117.5799  151.1319  146.2036 H       1  UNL111      0.0927
     41 H         117.9647  156.0689  146.3372 H       1  UNL111      0.0921
     42 H         120.0610  154.5936  146.5105 H       1  UNL111      0.0894
     43 H         118.8797  154.3420  147.8147 H       1  UNL111      0.0894
     44 H         116.7054  152.8401  144.7090 H       1  UNL111      0.0888
     45 H         115.5149  152.6304  146.0171 H       1  UNL111      0.0888
     46 H         119.9112  152.0645  148.1797 H       1  UNL111      0.1105
     47 H         115.5536  154.9774  144.2962 H       1  UNL111      0.0887
     48 H         115.7871  156.3230  145.4360 H       1  UNL111      0.0887
     49 H         117.1973  153.0768  148.5687 H       1  UNL111      0.0431
     50 H         117.8252  151.4250  148.6601 H       1  UNL111      0.0431
     51 H         116.1566  151.7049  148.1935 H       1  UNL111      0.0431
     52 H         118.4061  154.1626  143.9502 H       1  UNL111      0.0430
     53 H         119.4221  155.5499  144.3466 H       1  UNL111      0.0430
     54 H         117.7447  155.8035  143.8834 H       1  UNL111      0.0430
     55 H         121.4397  152.4173  144.6581 H       1  UNL111      0.0942
     56 H         122.0352  152.6416  148.9632 H       1  UNL111      0.0942
     57 H         119.8942  150.5992  144.6312 H       1  UNL111      0.1158
     58 H         120.3003  149.8187  148.8877 H       1  UNL111      0.0937
     59 H         114.5127  156.3024  147.7037 H       1  UNL111      0.0924
     60 H         113.4270  153.7655  144.3502 H       1  UNL111      0.0924
     61 H         123.6861  153.3250  144.3272 H       1  UNL111      0.0974
     62 H         124.2913  153.5307  148.5736 H       1  UNL111      0.0974
     63 H         120.1820  147.4133  148.4169 H       1  UNL111      0.0914
     64 H         119.8954  146.5903  146.1112 H       1  UNL111      0.1100
     65 H         112.3175  155.8571  148.7171 H       1  UNL111      0.0880
     66 H         111.2428  153.3572  145.4031 H       1  UNL111      0.0880
     67 H         110.6868  154.3874  147.5808 H       1  UNL111      0.0874
     68 H         125.5703  156.9992  147.6702 H       1  UNL111      0.0702
     69 H         124.2011  155.9006  147.6493 H       1  UNL111      0.0702
     70 H         127.3059  156.7019  145.9625 H       1  UNL111      0.0702
     71 H         127.6669  155.0582  145.4424 H       1  UNL111      0.0702
     72 H         125.0958  157.6029  145.2686 H       1  UNL111      0.0335
     73 H         123.6892  157.9017  146.3054 H       1  UNL111      0.0335
     74 H         123.7360  156.4735  145.2563 H       1  UNL111      0.0335
     75 H         127.7670  156.0261  148.3491 H       1  UNL111      0.0335
     76 H         129.1615  155.7051  147.3022 H       1  UNL111      0.0335
     77 H         128.1029  154.3754  147.8113 H       1  UNL111      0.0335
@<TRIPOS>UNITY_ATOM_ATTR
3 1
charge 1
4 1
charge 1
@<TRIPOS>BOND
     1     1    25    1
     2     2    32    2
     3     3     6    1
     4     3     8    1
     5     3    10    1
     6     4     7    1
     7     4     9    1
     8     4    11    1
     9     5    32   am
    10     5    33    1
    11     5    34    1
    12     6     9    1
    13     6    12    1
    14     7     8    1
    15     7    13    1
    16    10    14    1
    17    10    15    1
    18    11    16    1
    19    14    17   ar
    20    14    18   ar
    21    15    19   ar
    22    15    20   ar
    23    16    21   ar
    24    16    22   ar
    25    17    23   ar
    26    18    24   ar
    27    19    25   ar
    28    20    26   ar
    29    21    29   ar
    30    22    30   ar
    31    23    27   ar
    32    24    27   ar
    33    25    28   ar
    34    26    28   ar
    35    27    32    1
    36    29    31   ar
    37    30    31   ar
    38    33    35    1
    39    34    36    1
    40     1    37    1
    41     3    38    1
    42     4    39    1
    43     6    40    1
    44     7    41    1
    45     8    42    1
    46     8    43    1
    47     9    44    1
    48     9    45    1
    49    10    46    1
    50    11    47    1
    51    11    48    1
    52    12    49    1
    53    12    50    1
    54    12    51    1
    55    13    52    1
    56    13    53    1
    57    13    54    1
    58    17    55    1
    59    18    56    1
    60    19    57    1
    61    20    58    1
    62    21    59    1
    63    22    60    1
    64    23    61    1
    65    24    62    1
    66    26    63    1
    67    28    64    1
    68    29    65    1
    69    30    66    1
    70    31    67    1
    71    33    68    1
    72    33    69    1
    73    34    70    1
    74    34    71    1
    75    35    72    1
    76    35    73    1
    77    35    74    1
    78    36    75    1
    79    36    76    1
    80    36    77    1
