@<TRIPOS>MOLECULE
6022
 39 41 0 0 0
SMALL
GASTEIGER

@<TRIPOS>ATOM
      1 P         116.6377  154.5238  147.8820 P.3     1  UNL111      0.1285
      2 P         116.6675  153.2392  145.1191 P.3     1  UNL111     -0.0371
      3 O         121.3312  154.8413  147.5687 O.3     1  UNL111     -0.4015
      4 O         122.2581  155.0366  144.0395 O.3     1  UNL111     -0.4278
      5 O         121.7538  157.1125  145.6604 O.3     1  UNL111     -0.4321
      6 O         118.2551  154.7522  148.1218 O.3     1  UNL111     -0.3732
      7 O         116.6168  153.4133  146.7266 O.3     1  UNL111     -0.3706
      8 O         116.0751  155.8830  147.5052 O.co2   1  UNL111     -0.3889
      9 O         116.1495  153.9151  149.1948 O.2     1  UNL111     -0.5090
     10 O         117.7854  154.1202  144.5523 O.co2   1  UNL111     -0.5301
     11 O         115.2838  153.5919  144.5868 O.co2   1  UNL111     -0.5301
     12 O         116.9977  151.7538  144.9245 O.2     1  UNL111     -0.6304
     13 N         122.4717  152.9979  146.6420 N.pl3   1  UNL111     -0.2610
     14 N         123.6820  151.2401  147.3329 N.pl3   1  UNL111     -0.2348
     15 N         120.5757  151.8448  145.6942 N.pl3   1  UNL111     -0.2218
     16 N         120.7068  149.4526  145.9786 N.pl3   1  UNL111     -0.2291
     17 N         122.5350  148.3700  146.9736 N.pl3   1  UNL111     -0.3415
     18 C         121.3858  154.7851  145.1568 C.3     1  UNL111      0.0826
     19 C         120.7375  156.0801  145.6250 C.3     1  UNL111      0.0748
     20 C         122.1182  154.3872  146.4444 C.3     1  UNL111      0.1081
     21 C         120.2736  155.7001  147.0354 C.3     1  UNL111      0.0781
     22 C         118.9486  154.9529  146.9094 C.3     1  UNL111      0.0612
     23 C         121.7547  151.8908  146.3068 C.3     1  UNL111      0.1243
     24 C         123.6151  152.5564  147.2670 C.3     1  UNL111      0.0436
     25 C         122.4948  150.8148  146.7558 C.3     1  UNL111      0.1289
     26 C         121.9257  149.5447  146.5572 C.3     1  UNL111      0.0993
     27 C         120.0796  150.6028  145.6078 C.3     1  UNL111      0.0653
     28 H         121.6801  154.8519  143.2699 H       1  UNL111      0.2435
     29 H         122.2057  157.0110  144.8004 H       1  UNL111      0.2417
     30 H         121.9071  147.5810  146.9912 H       1  UNL111      0.1706
     31 H         123.2979  148.4780  147.6238 H       1  UNL111      0.1706
     32 H         120.6275  154.0661  144.8448 H       1  UNL111      0.1303
     33 H         119.9465  156.4376  144.9594 H       1  UNL111      0.1239
     34 H         123.0694  154.9359  146.4871 H       1  UNL111      0.1569
     35 H         120.1877  156.5618  147.7044 H       1  UNL111      0.1243
     36 H         118.3104  155.5562  146.2595 H       1  UNL111      0.1094
     37 H         119.1289  153.9581  146.5033 H       1  UNL111      0.1094
     38 H         124.3515  153.2446  147.6588 H       1  UNL111      0.1767
     39 H         119.0769  150.5177  145.1907 H       1  UNL111      0.1873
@<TRIPOS>UNITY_ATOM_ATTR
8 1
charge -1
10 1
charge -1
11 1
charge -1
@<TRIPOS>BOND
     1     1     6    1
     2     1     7    1
     3     1     8    1
     4     1     9    2
     5     2     7    1
     6     2    10    1
     7     2    11    1
     8     2    12    2
     9     3    20    1
    10     3    21    1
    11     4    18    1
    12     5    19    1
    13     6    22    1
    14    13    20    1
    15    13    23   ar
    16    13    24   ar
    17    14    24   ar
    18    14    25   ar
    19    15    23   ar
    20    15    27   ar
    21    16    26   ar
    22    16    27   ar
    23    17    26    1
    24    18    19    1
    25    18    20    1
    26    19    21    1
    27    21    22    1
    28    23    25   ar
    29    25    26   ar
    30     4    28    1
    31     5    29    1
    32    17    30    1
    33    17    31    1
    34    18    32    1
    35    19    33    1
    36    20    34    1
    37    21    35    1
    38    22    36    1
    39    22    37    1
    40    24    38    1
    41    27    39    1
