@<TRIPOS>MOLECULE
5311080
 84 88 0 0 0
SMALL
GASTEIGER

@<TRIPOS>ATOM
      1 O         119.4835  154.0321  146.4628 O.2     1  UNL111     -0.3752
      2 O         116.6453  153.5645  143.9948 O.2     1  UNL111     -0.3683
      3 O         123.1180  152.8590  144.2442 O.2     1  UNL111     -0.3751
      4 O         125.1538  150.1335  147.3069 O.2     1  UNL111     -0.3773
      5 O         118.0196  153.8184  150.9203 O.2     1  UNL111     -0.5649
      6 N         117.7335  155.4108  144.7697 N.am    1  UNL111     -0.2940
      7 N         120.4544  153.0080  144.6635 N.am    1  UNL111     -0.2903
      8 N         114.3025  155.0416  144.0721 N.4     1  UNL111      0.4483
      9 N         123.4674  152.0809  146.3730 N.am    1  UNL111     -0.2907
     10 N         117.2532  149.9694  144.6273 N.2     1  UNL111     -0.3531
     11 N         126.8500  150.9296  146.0505 N.am    1  UNL111     -0.3198
     12 C         119.0351  154.9680  144.2636 C.3     1  UNL111      0.0972
     13 C         119.8599  156.2483  144.1910 C.3     1  UNL111     -0.0134
     14 C         119.3149  157.0822  145.3479 C.3     1  UNL111     -0.0348
     15 C         117.8356  156.7223  145.3952 C.3     1  UNL111      0.0031
     16 C         119.6625  153.9646  145.2516 C.2     1  UNL111      0.1697
     17 C         116.6349  154.6022  144.6643 C.2     1  UNL111      0.1640
     18 C         115.2864  155.0818  145.2283 C.3     1  UNL111      0.0773
     19 C         121.1934  152.0307  145.4598 C.3     1  UNL111      0.1018
     20 C         120.9671  150.5958  144.9777 C.3     1  UNL111      0.0154
     21 C         114.7401  154.1514  146.3191 C.3     1  UNL111     -0.0024
     22 C         122.6806  152.3832  145.2920 C.2     1  UNL111      0.1704
     23 C         119.5832  150.0897  145.1586 C.2     1  UNL111     -0.0301
     24 C         115.5983  154.0893  147.5530 C.3     1  UNL111     -0.0638
     25 C         118.9852  149.3622  146.0995 C.2     1  UNL111     -0.0308
     26 C         124.8972  152.3821  146.4206 C.3     1  UNL111      0.0988
     27 C         118.4295  150.4353  144.3135 C.2     1  UNL111     -0.0122
     28 C         117.5752  149.0196  145.7100 C.3     1  UNL111      0.0563
     29 C         125.2428  153.3235  147.5846 C.3     1  UNL111      0.0062
     30 C         115.4962  155.0586  148.5619 C.3     1  UNL111     -0.0644
     31 C         116.5193  153.0428  147.7035 C.3     1  UNL111     -0.0644
     32 C         119.4463  148.9750  147.4071 C.2     1  UNL111     -0.0702
     33 C         116.6341  149.0613  146.8702 C.2     1  UNL111     -0.0681
     34 C         125.6201  151.0463  146.6278 C.2     1  UNL111      0.1619
     35 C         124.5856  154.6789  147.4552 C.3     1  UNL111     -0.0710
     36 C         118.5312  148.7394  148.3669 C.2     1  UNL111     -0.0837
     37 C         116.3048  154.9808  149.7004 C.3     1  UNL111     -0.0314
     38 C         117.3244  152.9683  148.8392 C.3     1  UNL111     -0.0314
     39 C         117.1027  148.8943  148.1212 C.2     1  UNL111     -0.0832
     40 C         117.2135  153.9354  149.8281 C.3     1  UNL111      0.0326
     41 C         125.2119  155.7110  146.7453 C.3     1  UNL111     -0.0816
     42 C         123.3190  154.9088  148.0122 C.3     1  UNL111     -0.0816
     43 C         124.5837  156.9494  146.5995 C.3     1  UNL111     -0.0859
     44 C         122.6901  156.1444  147.8590 C.3     1  UNL111     -0.0859
     45 C         123.3231  157.1654  147.1541 C.3     1  UNL111     -0.0868
     46 H         117.8264  154.5400  151.5402 H       1  UNL111      0.3342
     47 H         120.7688  153.1359  143.7069 H       1  UNL111      0.1957
     48 H         114.6083  155.6602  143.3112 H       1  UNL111      0.1472
     49 H         113.3408  155.2744  144.3394 H       1  UNL111      0.1472
     50 H         114.3234  154.0844  143.6790 H       1  UNL111      0.1472
     51 H         123.0917  151.5545  147.1545 H       1  UNL111      0.1956
     52 H         127.3521  150.0592  146.1785 H       1  UNL111      0.1795
     53 H         127.2583  151.6337  145.4505 H       1  UNL111      0.1795
     54 H         118.9204  154.4937  143.2827 H       1  UNL111      0.1212
     55 H         119.6585  156.7653  143.2447 H       1  UNL111      0.0489
     56 H         120.9385  156.0835  144.2713 H       1  UNL111      0.0489
     57 H         119.4791  158.1547  145.2086 H       1  UNL111      0.0420
     58 H         119.8022  156.7879  146.2842 H       1  UNL111      0.0420
     59 H         117.4412  156.6957  146.4147 H       1  UNL111      0.0730
     60 H         117.2365  157.4206  144.8008 H       1  UNL111      0.0730
     61 H         115.3147  156.1228  145.5567 H       1  UNL111      0.1256
     62 H         120.9258  152.1249  146.5186 H       1  UNL111      0.1221
     63 H         121.6618  149.9258  145.5010 H       1  UNL111      0.0632
     64 H         121.2318  150.5118  143.9150 H       1  UNL111      0.0632
     65 H         114.6041  153.1353  145.9246 H       1  UNL111      0.0668
     66 H         113.7350  154.4835  146.6143 H       1  UNL111      0.0668
     67 H         125.2173  152.8194  145.4678 H       1  UNL111      0.1216
     68 H         118.5756  151.1476  143.4877 H       1  UNL111      0.1367
     69 H         117.5427  148.0042  145.2896 H       1  UNL111      0.1148
     70 H         126.3309  153.4569  147.6509 H       1  UNL111      0.0614
     71 H         124.9486  152.8721  148.5421 H       1  UNL111      0.0614
     72 H         114.7792  155.8730  148.4902 H       1  UNL111      0.0929
     73 H         116.6294  152.2702  146.9427 H       1  UNL111      0.0929
     74 H         120.5067  148.9495  147.6314 H       1  UNL111      0.0917
     75 H         115.5712  149.1331  146.6738 H       1  UNL111      0.0907
     76 H         118.8384  148.4834  149.3774 H       1  UNL111      0.0877
     77 H         116.2102  155.7332  150.4779 H       1  UNL111      0.1102
     78 H         118.0413  152.1580  148.9445 H       1  UNL111      0.1102
     79 H         116.4303  148.8552  148.9729 H       1  UNL111      0.0872
     80 H         126.1935  155.5612  146.3018 H       1  UNL111      0.0892
     81 H         122.8078  154.1237  148.5654 H       1  UNL111      0.0892
     82 H         125.0804  157.7472  146.0531 H       1  UNL111      0.0876
     83 H         121.7067  156.3056  148.2930 H       1  UNL111      0.0876
     84 H         122.8384  158.1310  147.0412 H       1  UNL111      0.0874
@<TRIPOS>UNITY_ATOM_ATTR
8 1
charge 1
@<TRIPOS>BOND
     1     1    16    2
     2     2    17    2
     3     3    22    2
     4     4    34    2
     5     5    40    1
     6     6    12    1
     7     6    15    1
     8     6    17   am
     9     7    16   am
    10     7    19    1
    11     8    18    1
    12     9    22   am
    13     9    26    1
    14    10    27    2
    15    10    28    1
    16    11    34   am
    17    12    13    1
    18    12    16    1
    19    13    14    1
    20    14    15    1
    21    17    18    1
    22    18    21    1
    23    19    20    1
    24    19    22    1
    25    20    23    1
    26    21    24    1
    27    23    25    2
    28    23    27    1
    29    24    30   ar
    30    24    31   ar
    31    25    28    1
    32    25    32    1
    33    26    29    1
    34    26    34    1
    35    28    33    1
    36    29    35    1
    37    30    37   ar
    38    31    38   ar
    39    32    36    2
    40    33    39    2
    41    35    41   ar
    42    35    42   ar
    43    36    39    1
    44    37    40   ar
    45    38    40   ar
    46    41    43   ar
    47    42    44   ar
    48    43    45   ar
    49    44    45   ar
    50     5    46    1
    51     7    47    1
    52     8    48    1
    53     8    49    1
    54     8    50    1
    55     9    51    1
    56    11    52    1
    57    11    53    1
    58    12    54    1
    59    13    55    1
    60    13    56    1
    61    14    57    1
    62    14    58    1
    63    15    59    1
    64    15    60    1
    65    18    61    1
    66    19    62    1
    67    20    63    1
    68    20    64    1
    69    21    65    1
    70    21    66    1
    71    26    67    1
    72    27    68    1
    73    28    69    1
    74    29    70    1
    75    29    71    1
    76    30    72    1
    77    31    73    1
    78    32    74    1
    79    33    75    1
    80    36    76    1
    81    37    77    1
    82    38    78    1
    83    39    79    1
    84    41    80    1
    85    42    81    1
    86    43    82    1
    87    44    83    1
    88    45    84    1
@<TRIPOS>MOLECULE
5311081
 80 83 0 0 0
SMALL
GASTEIGER

@<TRIPOS>ATOM
      1 O         119.1860  153.3886  146.4847 O.2     1  UNL111     -0.3752
      2 O         116.4946  152.7576  143.8987 O.2     1  UNL111     -0.3683
      3 O         123.0925  152.6884  144.2018 O.2     1  UNL111     -0.3751
      4 O         125.4689  150.4610  147.5332 O.2     1  UNL111     -0.3773
      5 O         117.3808  154.4173  151.1470 O.2     1  UNL111     -0.5649
      6 N         117.3940  154.6606  144.7874 N.am    1  UNL111     -0.2940
      7 N         120.4508  152.6545  144.7319 N.am    1  UNL111     -0.2905
      8 N         113.9912  153.7858  144.0937 N.4     1  UNL111      0.4483
      9 N         123.5878  152.0395  146.3464 N.am    1  UNL111     -0.2907
     10 N         127.1195  151.3372  146.2691 N.am    1  UNL111     -0.3198
     11 C         118.7490  154.3723  144.3061 C.3     1  UNL111      0.0972
     12 C         119.4325  155.7362  144.2994 C.3     1  UNL111     -0.0134
     13 C         118.7856  156.4531  145.4826 C.3     1  UNL111     -0.0348
     14 C         117.3502  155.9433  145.4787 C.3     1  UNL111      0.0031
     15 C         119.4593  153.4198  145.2879 C.2     1  UNL111      0.1697
     16 C         116.3825  153.7586  144.6161 C.2     1  UNL111      0.1640
     17 C         114.9921  154.0515  145.2061 C.3     1  UNL111      0.0773
     18 C         121.2942  151.7794  145.5459 C.3     1  UNL111      0.1004
     19 C         114.6585  153.0969  146.3613 C.3     1  UNL111     -0.0024
     20 C         121.1186  150.2999  145.1895 C.3     1  UNL111      0.0064
     21 C         122.7392  152.2213  145.2843 C.2     1  UNL111      0.1702
     22 C         115.3565  153.4535  147.6462 C.3     1  UNL111     -0.0638
     23 C         119.8078  149.7405  145.6967 C.3     1  UNL111     -0.0709
     24 C         124.9651  152.5230  146.3488 C.3     1  UNL111      0.0988
     25 C         125.1663  153.6623  147.3608 C.3     1  UNL111      0.0062
     26 C         114.8390  154.4381  148.5019 C.3     1  UNL111     -0.0644
     27 C         116.5471  152.8059  147.9984 C.3     1  UNL111     -0.0644
     28 C         119.6995  149.2796  147.0163 C.3     1  UNL111     -0.0816
     29 C         118.6782  149.6991  144.8687 C.3     1  UNL111     -0.0816
     30 C         125.8480  151.3402  146.7618 C.2     1  UNL111      0.1619
     31 C         124.3165  154.8804  147.0793 C.3     1  UNL111     -0.0710
     32 C         115.5068  154.7713  149.6845 C.3     1  UNL111     -0.0314
     33 C         117.2156  153.1456  149.1745 C.3     1  UNL111     -0.0314
     34 C         118.4873  148.7790  147.4940 C.3     1  UNL111     -0.0859
     35 C         117.4675  149.1949  145.3478 C.3     1  UNL111     -0.0859
     36 C         116.6928  154.1226  150.0091 C.3     1  UNL111      0.0326
     37 C         117.3723  148.7345  146.6596 C.3     1  UNL111     -0.0868
     38 C         124.7166  155.8260  146.1267 C.3     1  UNL111     -0.0816
     39 C         123.1045  155.0720  147.7586 C.3     1  UNL111     -0.0816
     40 C         123.9250  156.9469  145.8682 C.3     1  UNL111     -0.0859
     41 C         122.3142  156.1919  147.4972 C.3     1  UNL111     -0.0859
     42 C         122.7256  157.1307  146.5539 C.3     1  UNL111     -0.0868
     43 H         116.8758  155.0584  151.6728 H       1  UNL111      0.3342
     44 H         120.7654  152.8225  143.7818 H       1  UNL111      0.1957
     45 H         114.1094  154.4611  143.3289 H       1  UNL111      0.1472
     46 H         113.0144  153.7888  144.4043 H       1  UNL111      0.1472
     47 H         114.2183  152.8613  143.6879 H       1  UNL111      0.1472
     48 H         123.2927  151.5114  147.1613 H       1  UNL111      0.1956
     49 H         127.7276  150.5724  146.5360 H       1  UNL111      0.1795
     50 H         127.4680  152.0194  145.6093 H       1  UNL111      0.1795
     51 H         118.7154  153.9153  143.3112 H       1  UNL111      0.1212
     52 H         119.1882  156.2707  143.3734 H       1  UNL111      0.0489
     53 H         120.5214  155.6850  144.3916 H       1  UNL111      0.0489
     54 H         118.8435  157.5422  145.4008 H       1  UNL111      0.0420
     55 H         119.2817  156.1612  146.4151 H       1  UNL111      0.0420
     56 H         116.9448  155.8267  146.4867 H       1  UNL111      0.0730
     57 H         116.6927  156.6072  144.9074 H       1  UNL111      0.0730
     58 H         114.8582  155.1017  145.4743 H       1  UNL111      0.1256
     59 H         121.0782  151.9452  146.6083 H       1  UNL111      0.1219
     60 H         114.9017  152.0609  146.0891 H       1  UNL111      0.0668
     61 H         113.5771  153.1021  146.5540 H       1  UNL111      0.0668
     62 H         121.9379  149.7048  145.6142 H       1  UNL111      0.0614
     63 H         121.1855  150.1546  144.1030 H       1  UNL111      0.0614
     64 H         125.2460  152.8491  145.3410 H       1  UNL111      0.1216
     65 H         126.2217  153.9654  147.3793 H       1  UNL111      0.0614
     66 H         124.9536  153.3048  148.3780 H       1  UNL111      0.0614
     67 H         113.9066  154.9486  148.2727 H       1  UNL111      0.0929
     68 H         116.9882  152.0381  147.3624 H       1  UNL111      0.0929
     69 H         120.5597  149.3007  147.6821 H       1  UNL111      0.0892
     70 H         118.7356  150.0557  143.8430 H       1  UNL111      0.0892
     71 H         115.0912  155.5311  150.3398 H       1  UNL111      0.1102
     72 H         118.1493  152.6497  149.4290 H       1  UNL111      0.1102
     73 H         118.4171  148.4159  148.5166 H       1  UNL111      0.0876
     74 H         116.6028  149.1512  144.6922 H       1  UNL111      0.0876
     75 H         116.4348  148.3305  147.0322 H       1  UNL111      0.0874
     76 H         125.6498  155.7016  145.5826 H       1  UNL111      0.0892
     77 H         122.7672  154.3511  148.5003 H       1  UNL111      0.0892
     78 H         124.2494  157.6805  145.1345 H       1  UNL111      0.0876
     79 H         121.3813  156.3312  148.0371 H       1  UNL111      0.0876
     80 H         122.1168  158.0088  146.3576 H       1  UNL111      0.0874
@<TRIPOS>UNITY_ATOM_ATTR
8 1
charge 1
@<TRIPOS>BOND
     1     1    15    2
     2     2    16    2
     3     3    21    2
     4     4    30    2
     5     5    36    1
     6     6    11    1
     7     6    14    1
     8     6    16   am
     9     7    15   am
    10     7    18    1
    11     8    17    1
    12     9    21   am
    13     9    24    1
    14    10    30   am
    15    11    12    1
    16    11    15    1
    17    12    13    1
    18    13    14    1
    19    16    17    1
    20    17    19    1
    21    18    20    1
    22    18    21    1
    23    19    22    1
    24    20    23    1
    25    22    26   ar
    26    22    27   ar
    27    23    28   ar
    28    23    29   ar
    29    24    25    1
    30    24    30    1
    31    25    31    1
    32    26    32   ar
    33    27    33   ar
    34    28    34   ar
    35    29    35   ar
    36    31    38   ar
    37    31    39   ar
    38    32    36   ar
    39    33    36   ar
    40    34    37   ar
    41    35    37   ar
    42    38    40   ar
    43    39    41   ar
    44    40    42   ar
    45    41    42   ar
    46     5    43    1
    47     7    44    1
    48     8    45    1
    49     8    46    1
    50     8    47    1
    51     9    48    1
    52    10    49    1
    53    10    50    1
    54    11    51    1
    55    12    52    1
    56    12    53    1
    57    13    54    1
    58    13    55    1
    59    14    56    1
    60    14    57    1
    61    17    58    1
    62    18    59    1
    63    19    60    1
    64    19    61    1
    65    20    62    1
    66    20    63    1
    67    24    64    1
    68    25    65    1
    69    25    66    1
    70    26    67    1
    71    27    68    1
    72    28    69    1
    73    29    70    1
    74    32    71    1
    75    33    72    1
    76    34    73    1
    77    35    74    1
    78    37    75    1
    79    38    76    1
    80    39    77    1
    81    40    78    1
    82    41    79    1
    83    42    80    1
@<TRIPOS>MOLECULE
44350751
 80 83 0 0 0
SMALL
GASTEIGER

@<TRIPOS>ATOM
      1 O         119.2890  152.5075  146.3467 O.2     1  UNL111     -0.3752
      2 O         117.9782  154.2919  149.1186 O.2     1  UNL111     -0.3683
      3 O         122.8419  153.3632  148.4368 O.2     1  UNL111     -0.3751
      4 O         125.6560  153.8066  145.1815 O.2     1  UNL111     -0.3773
      5 O         114.9541  152.0619  142.2711 O.2     1  UNL111     -0.5649
      6 N         117.2511  152.3250  148.2168 N.am    1  UNL111     -0.2940
      7 N         120.8450  151.5569  147.7299 N.am    1  UNL111     -0.2905
      8 N         115.5706  155.3743  149.2889 N.4     1  UNL111      0.4483
      9 N         123.1223  153.8493  146.2130 N.am    1  UNL111     -0.2907
     10 N         126.3859  155.1755  146.8181 N.am    1  UNL111     -0.3198
     11 C         118.5130  151.6262  148.4861 C.3     1  UNL111      0.0972
     12 C         118.1353  150.1465  148.4248 C.3     1  UNL111     -0.0134
     13 C         117.0145  150.1223  147.3893 C.3     1  UNL111     -0.0348
     14 C         116.2577  151.4135  147.6625 C.3     1  UNL111      0.0031
     15 C         119.5711  151.9640  147.4131 C.2     1  UNL111      0.1697
     16 C         117.1181  153.6528  148.5004 C.2     1  UNL111      0.1640
     17 C         115.8173  154.3949  148.1519 C.3     1  UNL111      0.0773
     18 C         121.9668  151.7790  146.8199 C.3     1  UNL111      0.1004
     19 C         115.9686  155.2144  146.8608 C.3     1  UNL111     -0.0024
     20 C         122.9863  150.6323  146.8636 C.3     1  UNL111      0.0064
     21 C         122.6677  153.0756  147.2535 C.2     1  UNL111      0.1702
     22 C         115.7056  154.4055  145.6181 C.3     1  UNL111     -0.0638
     23 C         122.4198  149.3356  146.3330 C.3     1  UNL111     -0.0709
     24 C         123.9584  155.0282  146.4237 C.3     1  UNL111      0.0988
     25 C         123.5723  156.1889  145.4988 C.3     1  UNL111      0.0062
     26 C         116.7738  153.9175  144.8526 C.3     1  UNL111     -0.0644
     27 C         114.3929  154.1086  145.2227 C.3     1  UNL111     -0.0644
     28 C         121.9765  148.3378  147.2120 C.3     1  UNL111     -0.0816
     29 C         122.3123  149.1221  144.9518 C.3     1  UNL111     -0.0816
     30 C         125.3920  154.5942  146.0877 C.2     1  UNL111      0.1619
     31 C         122.2614  156.8402  145.8752 C.3     1  UNL111     -0.0710
     32 C         116.5391  153.1275  143.7255 C.3     1  UNL111     -0.0314
     33 C         114.1602  153.3211  144.0944 C.3     1  UNL111     -0.0314
     34 C         121.4339  147.1506  146.7179 C.3     1  UNL111     -0.0859
     35 C         121.7704  147.9336  144.4606 C.3     1  UNL111     -0.0859
     36 C         115.2326  152.8336  143.3578 C.3     1  UNL111      0.0326
     37 C         121.3301  146.9493  145.3431 C.3     1  UNL111     -0.0868
     38 C         121.0629  156.4362  145.2714 C.3     1  UNL111     -0.0816
     39 C         122.2279  157.8626  146.8331 C.3     1  UNL111     -0.0816
     40 C         119.8578  157.0583  145.6031 C.3     1  UNL111     -0.0859
     41 C         121.0216  158.4810  147.1659 C.3     1  UNL111     -0.0859
     42 C         119.8377  158.0826  146.5477 C.3     1  UNL111     -0.0868
     43 H         115.7852  151.8375  141.8193 H       1  UNL111      0.3342
     44 H         121.0730  151.3129  148.6861 H       1  UNL111      0.1957
     45 H         115.3537  154.8721  150.1583 H       1  UNL111      0.1472
     46 H         114.8381  156.0653  149.0997 H       1  UNL111      0.1472
     47 H         116.4671  155.8598  149.4727 H       1  UNL111      0.1472
     48 H         123.0941  153.4801  145.2693 H       1  UNL111      0.1956
     49 H         127.3412  154.9120  146.6085 H       1  UNL111      0.1795
     50 H         126.2189  155.7872  147.6053 H       1  UNL111      0.1795
     51 H         118.9040  151.9121  149.4690 H       1  UNL111      0.1212
     52 H         117.7406  149.8229  149.3957 H       1  UNL111      0.0489
     53 H         118.9618  149.4843  148.1519 H       1  UNL111      0.0489
     54 H         116.3777  149.2372  147.4718 H       1  UNL111      0.0420
     55 H         117.4398  150.1424  146.3787 H       1  UNL111      0.0420
     56 H         115.7916  151.8242  146.7671 H       1  UNL111      0.0730
     57 H         115.4837  151.2681  148.4240 H       1  UNL111      0.0730
     58 H         114.9497  153.7305  148.1467 H       1  UNL111      0.1256
     59 H         121.5810  151.9060  145.8013 H       1  UNL111      0.1219
     60 H         116.9677  155.6658  146.8044 H       1  UNL111      0.0668
     61 H         115.2644  156.0575  146.8571 H       1  UNL111      0.0668
     62 H         123.3486  150.4828  147.8897 H       1  UNL111      0.0614
     63 H         123.8762  150.8930  146.2753 H       1  UNL111      0.0614
     64 H         123.9150  155.3336  147.4754 H       1  UNL111      0.1216
     65 H         123.5210  155.8476  144.4557 H       1  UNL111      0.0614
     66 H         124.3568  156.9577  145.5104 H       1  UNL111      0.0614
     67 H         117.8058  154.1326  145.1278 H       1  UNL111      0.0929
     68 H         113.5352  154.4869  145.7736 H       1  UNL111      0.0929
     69 H         122.0576  148.4731  148.2877 H       1  UNL111      0.0892
     70 H         122.6578  149.8750  144.2468 H       1  UNL111      0.0892
     71 H         117.3848  152.7502  143.1575 H       1  UNL111      0.1102
     72 H         113.1447  153.0898  143.7819 H       1  UNL111      0.1102
     73 H         121.1007  146.3767  147.4048 H       1  UNL111      0.0876
     74 H         121.6989  147.7715  143.3879 H       1  UNL111      0.0876
     75 H         120.9159  146.0208  144.9583 H       1  UNL111      0.0874
     76 H         121.0621  155.6420  144.5281 H       1  UNL111      0.0892
     77 H         123.1434  158.1963  147.3167 H       1  UNL111      0.0892
     78 H         118.9405  156.7516  145.1089 H       1  UNL111      0.0876
     79 H         121.0114  159.2846  147.8981 H       1  UNL111      0.0876
     80 H         118.9056  158.5826  146.7924 H       1  UNL111      0.0874
@<TRIPOS>UNITY_ATOM_ATTR
8 1
charge 1
@<TRIPOS>BOND
     1     1    15    2
     2     2    16    2
     3     3    21    2
     4     4    30    2
     5     5    36    1
     6     6    11    1
     7     6    14    1
     8     6    16   am
     9     7    15   am
    10     7    18    1
    11     8    17    1
    12     9    21   am
    13     9    24    1
    14    10    30   am
    15    11    12    1
    16    11    15    1
    17    12    13    1
    18    13    14    1
    19    16    17    1
    20    17    19    1
    21    18    20    1
    22    18    21    1
    23    19    22    1
    24    20    23    1
    25    22    26   ar
    26    22    27   ar
    27    23    28   ar
    28    23    29   ar
    29    24    25    1
    30    24    30    1
    31    25    31    1
    32    26    32   ar
    33    27    33   ar
    34    28    34   ar
    35    29    35   ar
    36    31    38   ar
    37    31    39   ar
    38    32    36   ar
    39    33    36   ar
    40    34    37   ar
    41    35    37   ar
    42    38    40   ar
    43    39    41   ar
    44    40    42   ar
    45    41    42   ar
    46     5    43    1
    47     7    44    1
    48     8    45    1
    49     8    46    1
    50     8    47    1
    51     9    48    1
    52    10    49    1
    53    10    50    1
    54    11    51    1
    55    12    52    1
    56    12    53    1
    57    13    54    1
    58    13    55    1
    59    14    56    1
    60    14    57    1
    61    17    58    1
    62    18    59    1
    63    19    60    1
    64    19    61    1
    65    20    62    1
    66    20    63    1
    67    24    64    1
    68    25    65    1
    69    25    66    1
    70    26    67    1
    71    27    68    1
    72    28    69    1
    73    29    70    1
    74    32    71    1
    75    33    72    1
    76    34    73    1
    77    35    74    1
    78    37    75    1
    79    38    76    1
    80    39    77    1
    81    40    78    1
    82    41    79    1
    83    42    80    1
