@<TRIPOS>MOLECULE
644209
 64 69 0 0 0
SMALL
GASTEIGER

@<TRIPOS>ATOM
      1 O         119.1640  150.9781  147.3020 O.3     1  UNL111     -0.5421
      2 O         122.0821  151.2809  146.3315 O.3     1  UNL111     -0.4404
      3 O         122.9909  154.2341  144.4429 O.3     1  UNL111     -0.4501
      4 O         117.0054  149.1253  146.7124 O.3     1  UNL111     -0.5485
      5 N         118.0834  156.1549  147.0266 N.4     1  UNL111      0.4278
      6 C         118.9842  153.4031  147.0969 C.3     1  UNL111      0.0574
      7 C         119.4100  154.3167  145.9215 C.3     1  UNL111      0.0064
      8 C         119.9526  152.2151  147.3153 C.3     1  UNL111      0.0964
      9 C         121.1200  152.3159  146.2475 C.3     1  UNL111      0.0751
     10 C         118.2333  155.3275  145.7287 C.3     1  UNL111     -0.0174
     11 C         120.8012  154.8978  146.2706 C.3     1  UNL111     -0.0198
     12 C         121.8397  153.7240  146.5413 C.3     1  UNL111      0.0180
     13 C         118.7031  154.1696  148.4044 C.3     1  UNL111     -0.0248
     14 C         117.7694  152.6771  146.6546 C.ar    1  UNL111      0.0245
     15 C         119.6933  153.4676  144.6703 C.2     1  UNL111     -0.0815
     16 C         116.8741  154.6153  145.3612 C.3     1  UNL111     -0.0205
     17 C         120.5375  152.4371  144.8536 C.2     1  UNL111     -0.0595
     18 C         117.7240  155.3273  148.2376 C.3     1  UNL111     -0.0360
     19 C         123.2179  154.0341  145.8458 C.3     1  UNL111      0.0167
     20 C         116.7262  153.2152  145.9158 C.ar    1  UNL111     -0.0421
     21 C         117.9153  151.3276  146.8621 C.ar    1  UNL111      0.1056
     22 C         124.3333  152.9693  145.9968 C.3     1  UNL111     -0.0346
     23 C         117.1795  157.3545  146.8789 C.3     1  UNL111     -0.0440
     24 C         115.6864  152.3512  145.5644 C.ar    1  UNL111     -0.0572
     25 C         123.7693  155.3826  146.3625 C.3     1  UNL111     -0.0388
     26 C         116.9039  150.4648  146.5106 C.ar    1  UNL111      0.0918
     27 C         115.7653  150.9812  145.8901 C.ar    1  UNL111     -0.0140
     28 C         121.6190  149.9403  146.2883 C.3     1  UNL111      0.0034
     29 C         124.7131  152.6141  147.4369 C.3     1  UNL111     -0.0581
     30 C         125.7563  151.5067  147.4732 C.3     1  UNL111     -0.0683
     31 H         123.0088  153.3611  144.0103 H       1  UNL111      0.2375
     32 H         117.8746  148.9656  147.1243 H       1  UNL111      0.3393
     33 H         119.0040  156.5726  147.2127 H       1  UNL111      0.1331
     34 H         120.4087  152.2433  148.3138 H       1  UNL111      0.1440
     35 H         118.4853  156.0587  144.9509 H       1  UNL111      0.0869
     36 H         120.7837  155.5438  147.1541 H       1  UNL111      0.0468
     37 H         121.1228  155.5412  145.4424 H       1  UNL111      0.0468
     38 H         122.0508  153.7310  147.6210 H       1  UNL111      0.0723
     39 H         119.6433  154.5607  148.8124 H       1  UNL111      0.0546
     40 H         118.3083  153.4920  149.1733 H       1  UNL111      0.0546
     41 H         119.2557  153.6799  143.6998 H       1  UNL111      0.0831
     42 H         116.8491  154.5254  144.2669 H       1  UNL111      0.0617
     43 H         116.0047  155.2135  145.6462 H       1  UNL111      0.0617
     44 H         120.8263  151.7635  144.0549 H       1  UNL111      0.0934
     45 H         116.6910  154.9847  148.1213 H       1  UNL111      0.0739
     46 H         117.7700  155.9907  149.1083 H       1  UNL111      0.0739
     47 H         125.2329  153.3330  145.4789 H       1  UNL111      0.0460
     48 H         124.0746  152.0650  145.4347 H       1  UNL111      0.0460
     49 H         116.1419  157.0220  146.8132 H       1  UNL111      0.0667
     50 H         117.4805  157.9001  145.9813 H       1  UNL111      0.0667
     51 H         117.3210  157.9851  147.7610 H       1  UNL111      0.0667
     52 H         114.8348  152.7039  144.9856 H       1  UNL111      0.0939
     53 H         123.1419  156.2275  146.0605 H       1  UNL111      0.0400
     54 H         124.7568  155.5890  145.9326 H       1  UNL111      0.0400
     55 H         123.8599  155.3959  147.4530 H       1  UNL111      0.0400
     56 H         114.9648  150.3057  145.5949 H       1  UNL111      0.1139
     57 H         122.4748  149.2984  146.0600 H       1  UNL111      0.0829
     58 H         120.8624  149.7876  145.5140 H       1  UNL111      0.0829
     59 H         121.2393  149.6405  147.2683 H       1  UNL111      0.0829
     60 H         123.8368  152.2862  148.0040 H       1  UNL111      0.0327
     61 H         125.1191  153.4930  147.9488 H       1  UNL111      0.0327
     62 H         125.3738  150.5929  147.0071 H       1  UNL111      0.0258
     63 H         126.0244  151.2727  148.5082 H       1  UNL111      0.0258
     64 H         126.6671  151.8075  146.9458 H       1  UNL111      0.0258
@<TRIPOS>UNITY_ATOM_ATTR
5 1
charge 1
@<TRIPOS>BOND
     1     1     8    1
     2     1    21    1
     3     2     9    1
     4     2    28    1
     5     3    19    1
     6     4    26    1
     7     5    10    1
     8     5    18    1
     9     5    23    1
    10     6     7    1
    11     6     8    1
    12     6    13    1
    13     6    14    1
    14     7    10    1
    15     7    11    1
    16     7    15    1
    17     8     9    1
    18     9    12    1
    19     9    17    1
    20    10    16    1
    21    11    12    1
    22    12    19    1
    23    13    18    1
    24    14    20   ar
    25    14    21   ar
    26    15    17    2
    27    16    20    1
    28    19    22    1
    29    19    25    1
    30    20    24   ar
    31    21    26   ar
    32    22    29    1
    33    24    27   ar
    34    26    27   ar
    35    29    30    1
    36     3    31    1
    37     4    32    1
    38     5    33    1
    39     8    34    1
    40    10    35    1
    41    11    36    1
    42    11    37    1
    43    12    38    1
    44    13    39    1
    45    13    40    1
    46    15    41    1
    47    16    42    1
    48    16    43    1
    49    17    44    1
    50    18    45    1
    51    18    46    1
    52    22    47    1
    53    22    48    1
    54    23    49    1
    55    23    50    1
    56    23    51    1
    57    24    52    1
    58    25    53    1
    59    25    54    1
    60    25    55    1
    61    27    56    1
    62    28    57    1
    63    28    58    1
    64    28    59    1
    65    29    60    1
    66    29    61    1
    67    30    62    1
    68    30    63    1
    69    30    64    1
@<TRIPOS>MOLECULE
443407
 64 69 0 0 0
SMALL
GASTEIGER

@<TRIPOS>ATOM
      1 O         118.4121  151.2789  147.5902 O.3     1  UNL111     -0.5421
      2 O         121.1844  150.3420  146.6422 O.3     1  UNL111     -0.4404
      3 O         122.9829  152.5399  144.3016 O.3     1  UNL111     -0.4501
      4 O         115.6985  150.3060  147.2211 O.3     1  UNL111     -0.5485
      5 N         119.3218  156.4025  146.6332 N.4     1  UNL111      0.4278
      6 C         119.1374  153.5466  147.0649 C.3     1  UNL111      0.0574
      7 C         119.8290  154.0816  145.7887 C.3     1  UNL111      0.0064
      8 C         119.6047  152.1224  147.4433 C.3     1  UNL111      0.0964
      9 C         120.6793  151.6412  146.3807 C.3     1  UNL111      0.0751
     10 C         119.1057  155.4254  145.4537 C.3     1  UNL111     -0.0174
     11 C         121.3487  154.1398  146.0852 C.3     1  UNL111     -0.0198
     12 C         121.8882  152.6989  146.4796 C.3     1  UNL111      0.0180
     13 C         119.2060  154.5162  148.2614 C.3     1  UNL111     -0.0248
     14 C         117.7244  153.2772  146.7061 C.ar    1  UNL111      0.0245
     15 C         119.7261  153.0422  144.6587 C.2     1  UNL111     -0.0815
     16 C         117.5664  155.2322  145.1634 C.3     1  UNL111     -0.0205
     17 C         120.1295  151.7993  144.9789 C.2     1  UNL111     -0.0595
     18 C         118.7231  155.9256  147.9349 C.3     1  UNL111     -0.0360
     19 C         123.2279  152.3868  145.7100 C.3     1  UNL111      0.0167
     20 C         116.9287  154.0695  145.8922 C.ar    1  UNL111     -0.0421
     21 C         117.3667  152.0087  147.0908 C.ar    1  UNL111      0.1056
     22 C         124.3454  153.4203  146.0449 C.3     1  UNL111     -0.0346
     23 C         118.9257  157.8244  146.3213 C.3     1  UNL111     -0.0440
     24 C         115.6298  153.6196  145.6449 C.ar    1  UNL111     -0.0572
     25 C         123.7742  150.9702  145.9343 C.3     1  UNL111     -0.0388
     26 C         116.0944  151.5496  146.8439 C.ar    1  UNL111      0.0918
     27 C         115.2064  152.3716  146.1479 C.ar    1  UNL111     -0.0140
     28 C         120.2521  149.2742  146.7091 C.3     1  UNL111      0.0034
     29 C         124.7888  153.4715  147.5092 C.3     1  UNL111     -0.0581
     30 C         125.9380  154.4511  147.7017 C.3     1  UNL111     -0.0683
     31 H         123.7282  152.1361  143.8205 H       1  UNL111      0.2375
     32 H         116.4653  149.8840  147.6513 H       1  UNL111      0.3393
     33 H         120.3378  156.4626  146.7763 H       1  UNL111      0.1331
     34 H         120.0818  152.1034  148.4322 H       1  UNL111      0.1440
     35 H         119.5826  155.9080  144.5919 H       1  UNL111      0.0869
     36 H         121.5988  154.8283  146.8984 H       1  UNL111      0.0468
     37 H         121.8590  154.5384  145.2000 H       1  UNL111      0.0468
     38 H         122.1520  152.7198  147.5457 H       1  UNL111      0.0723
     39 H         120.2369  154.5746  148.6318 H       1  UNL111      0.0546
     40 H         118.6132  154.1349  149.1037 H       1  UNL111      0.0546
     41 H         119.3867  153.2869  143.6574 H       1  UNL111      0.0831
     42 H         117.4701  155.0226  144.0896 H       1  UNL111      0.0617
     43 H         116.9930  156.1424  145.3576 H       1  UNL111      0.0617
     44 H         120.1508  150.9845  144.2646 H       1  UNL111      0.0934
     45 H         117.6334  155.9825  147.8495 H       1  UNL111      0.0739
     46 H         119.0435  156.6256  148.7144 H       1  UNL111      0.0739
     47 H         124.0344  154.4236  145.7277 H       1  UNL111      0.0460
     48 H         125.2202  153.2029  145.4151 H       1  UNL111      0.0460
     49 H         117.8373  157.8989  146.2837 H       1  UNL111      0.0667
     50 H         119.3771  158.1029  145.3659 H       1  UNL111      0.0667
     51 H         119.3224  158.4601  147.1178 H       1  UNL111      0.0667
     52 H         114.9490  154.1889  145.0149 H       1  UNL111      0.0939
     53 H         123.2032  150.2248  145.3713 H       1  UNL111      0.0400
     54 H         123.7887  150.6988  146.9941 H       1  UNL111      0.0400
     55 H         124.7992  150.8830  145.5534 H       1  UNL111      0.0400
     56 H         114.2017  152.0124  145.9342 H       1  UNL111      0.1139
     57 H         120.8046  148.3393  146.5776 H       1  UNL111      0.0829
     58 H         119.4916  149.3332  145.9260 H       1  UNL111      0.0829
     59 H         119.7879  149.2408  147.6979 H       1  UNL111      0.0829
     60 H         125.1113  152.4817  147.8480 H       1  UNL111      0.0327
     61 H         123.9592  153.7856  148.1503 H       1  UNL111      0.0327
     62 H         126.8091  154.1561  147.1080 H       1  UNL111      0.0258
     63 H         126.2385  154.4803  148.7538 H       1  UNL111      0.0258
     64 H         125.6449  155.4630  147.4040 H       1  UNL111      0.0258
@<TRIPOS>UNITY_ATOM_ATTR
5 1
charge 1
@<TRIPOS>BOND
     1     1     8    1
     2     1    21    1
     3     2     9    1
     4     2    28    1
     5     3    19    1
     6     4    26    1
     7     5    10    1
     8     5    18    1
     9     5    23    1
    10     6     7    1
    11     6     8    1
    12     6    13    1
    13     6    14    1
    14     7    10    1
    15     7    11    1
    16     7    15    1
    17     8     9    1
    18     9    12    1
    19     9    17    1
    20    10    16    1
    21    11    12    1
    22    12    19    1
    23    13    18    1
    24    14    20   ar
    25    14    21   ar
    26    15    17    2
    27    16    20    1
    28    19    22    1
    29    19    25    1
    30    20    24   ar
    31    21    26   ar
    32    22    29    1
    33    24    27   ar
    34    26    27   ar
    35    29    30    1
    36     3    31    1
    37     4    32    1
    38     5    33    1
    39     8    34    1
    40    10    35    1
    41    11    36    1
    42    11    37    1
    43    12    38    1
    44    13    39    1
    45    13    40    1
    46    15    41    1
    47    16    42    1
    48    16    43    1
    49    17    44    1
    50    18    45    1
    51    18    46    1
    52    22    47    1
    53    22    48    1
    54    23    49    1
    55    23    50    1
    56    23    51    1
    57    24    52    1
    58    25    53    1
    59    25    54    1
    60    25    55    1
    61    27    56    1
    62    28    57    1
    63    28    58    1
    64    28    59    1
    65    29    60    1
    66    29    61    1
    67    30    62    1
    68    30    63    1
    69    30    64    1
@<TRIPOS>MOLECULE
26721
 64 69 0 0 0
SMALL
GASTEIGER

@<TRIPOS>ATOM
      1 O         118.4114  151.2773  147.5885 O.3     1  UNL111     -0.5421
      2 O         121.1832  150.3401  146.6391 O.3     1  UNL111     -0.4404
      3 O         122.9823  152.5337  144.3011 O.3     1  UNL111     -0.4501
      4 O         115.6973  150.3064  147.2188 O.3     1  UNL111     -0.5485
      5 N         119.3240  156.4015  146.6366 N.4     1  UNL111      0.4278
      6 C         119.1380  153.5453  147.0654 C.3     1  UNL111      0.0574
      7 C         119.8293  154.0811  145.7894 C.3     1  UNL111      0.0064
      8 C         119.6044  152.1203  147.4423 C.3     1  UNL111      0.0964
      9 C         120.6786  151.6398  146.3791 C.3     1  UNL111      0.0751
     10 C         119.1067  155.4257  145.4561 C.3     1  UNL111     -0.0174
     11 C         121.3492  154.1381  146.0849 C.3     1  UNL111     -0.0198
     12 C         121.8880  152.6970  146.4789 C.3     1  UNL111      0.0180
     13 C         119.2079  154.5136  148.2629 C.3     1  UNL111     -0.0248
     14 C         117.7246  153.2771  146.7070 C.ar    1  UNL111      0.0245
     15 C         119.7253  153.0428  144.6586 C.2     1  UNL111     -0.0815
     16 C         117.5673  155.2338  145.1664 C.3     1  UNL111     -0.0205
     17 C         120.1284  151.7994  144.9775 C.2     1  UNL111     -0.0595
     18 C         118.7255  155.9236  147.9381 C.3     1  UNL111     -0.0360
     19 C         123.2278  152.3845  145.7097 C.3     1  UNL111      0.0167
     20 C         116.9291  154.0708  145.8942 C.ar    1  UNL111     -0.0421
     21 C         117.3663  152.0084  147.0903 C.ar    1  UNL111      0.1056
     22 C         124.3446  153.4197  146.0415 C.3     1  UNL111     -0.0346
     23 C         118.9286  157.8240  146.3264 C.3     1  UNL111     -0.0440
     24 C         115.6299  153.6219  145.6466 C.ar    1  UNL111     -0.0572
     25 C         123.7754  150.9690  145.9380 C.3     1  UNL111     -0.0388
     26 C         116.0937  151.5502  146.8430 C.ar    1  UNL111      0.0918
     27 C         115.2059  152.3735  146.1483 C.ar    1  UNL111     -0.0140
     28 C         120.2504  149.2726  146.7052 C.3     1  UNL111      0.0034
     29 C         124.7860  153.4776  147.5062 C.3     1  UNL111     -0.0581
     30 C         125.9350  154.4581  147.6956 C.3     1  UNL111     -0.0683
     31 H         123.7274  152.1285  143.8207 H       1  UNL111      0.2375
     32 H         116.4640  149.8834  147.6481 H       1  UNL111      0.3393
     33 H         120.3400  156.4609  146.7793 H       1  UNL111      0.1331
     34 H         120.0816  152.1000  148.4311 H       1  UNL111      0.1440
     35 H         119.5836  155.9089  144.5947 H       1  UNL111      0.0869
     36 H         121.6004  154.8265  146.8979 H       1  UNL111      0.0468
     37 H         121.8591  154.5362  145.1992 H       1  UNL111      0.0468
     38 H         122.1515  152.7174  147.5450 H       1  UNL111      0.0723
     39 H         120.2390  154.5711  148.6327 H       1  UNL111      0.0546
     40 H         118.6154  154.1318  149.1052 H       1  UNL111      0.0546
     41 H         119.3856  153.2885  143.6577 H       1  UNL111      0.0831
     42 H         117.4703  155.0256  144.0923 H       1  UNL111      0.0617
     43 H         116.9945  156.1443  145.3619 H       1  UNL111      0.0617
     44 H         120.1490  150.9853  144.2625 H       1  UNL111      0.0934
     45 H         117.6358  155.9812  147.8532 H       1  UNL111      0.0739
     46 H         119.0467  156.6226  148.7181 H       1  UNL111      0.0739
     47 H         124.0339  154.4215  145.7195 H       1  UNL111      0.0460
     48 H         125.2202  153.1998  145.4139 H       1  UNL111      0.0460
     49 H         117.8403  157.8992  146.2894 H       1  UNL111      0.0667
     50 H         119.3798  158.1032  145.3712 H       1  UNL111      0.0667
     51 H         119.3261  158.4586  147.1234 H       1  UNL111      0.0667
     52 H         114.9492  154.1923  145.0174 H       1  UNL111      0.0939
     53 H         123.2058  150.2215  145.3763 H       1  UNL111      0.0400
     54 H         123.7891  150.7003  146.9985 H       1  UNL111      0.0400
     55 H         124.8009  150.8819  145.5584 H       1  UNL111      0.0400
     56 H         114.2010  152.0151  145.9343 H       1  UNL111      0.1139
     57 H         120.8025  148.3376  146.5727 H       1  UNL111      0.0829
     58 H         119.4898  149.3327  145.9223 H       1  UNL111      0.0829
     59 H         119.7864  149.2385  147.6940 H       1  UNL111      0.0829
     60 H         125.1078  152.4893  147.8500 H       1  UNL111      0.0327
     61 H         123.9555  153.7947  148.1446 H       1  UNL111      0.0327
     62 H         126.8069  154.1601  147.1047 H       1  UNL111      0.0258
     63 H         126.2338  154.4925  148.7480 H       1  UNL111      0.0258
     64 H         125.6423  155.4685  147.3925 H       1  UNL111      0.0258
@<TRIPOS>UNITY_ATOM_ATTR
5 1
charge 1
@<TRIPOS>BOND
     1     1     8    1
     2     1    21    1
     3     2     9    1
     4     2    28    1
     5     3    19    1
     6     4    26    1
     7     5    10    1
     8     5    18    1
     9     5    23    1
    10     6     7    1
    11     6     8    1
    12     6    13    1
    13     6    14    1
    14     7    10    1
    15     7    11    1
    16     7    15    1
    17     8     9    1
    18     9    12    1
    19     9    17    1
    20    10    16    1
    21    11    12    1
    22    12    19    1
    23    13    18    1
    24    14    20   ar
    25    14    21   ar
    26    15    17    2
    27    16    20    1
    28    19    22    1
    29    19    25    1
    30    20    24   ar
    31    21    26   ar
    32    22    29    1
    33    24    27   ar
    34    26    27   ar
    35    29    30    1
    36     3    31    1
    37     4    32    1
    38     5    33    1
    39     8    34    1
    40    10    35    1
    41    11    36    1
    42    11    37    1
    43    12    38    1
    44    13    39    1
    45    13    40    1
    46    15    41    1
    47    16    42    1
    48    16    43    1
    49    17    44    1
    50    18    45    1
    51    18    46    1
    52    22    47    1
    53    22    48    1
    54    23    49    1
    55    23    50    1
    56    23    51    1
    57    24    52    1
    58    25    53    1
    59    25    54    1
    60    25    55    1
    61    27    56    1
    62    28    57    1
    63    28    58    1
    64    28    59    1
    65    29    60    1
    66    29    61    1
    67    30    62    1
    68    30    63    1
    69    30    64    1
@<TRIPOS>MOLECULE
20055090
 69 74 0 0 0
SMALL
GASTEIGER

@<TRIPOS>ATOM
      1 O         118.6970  151.8448  147.7131 O.2     1  UNL111     -0.5412
      2 O         121.4912  151.0233  147.0215 O.3     1  UNL111     -0.4404
      3 O         123.4598  153.4729  144.8197 O.3     1  UNL111     -0.4501
      4 O         116.1685  150.5859  146.9990 O.3     1  UNL111     -0.4570
      5 O         117.3685  149.9269  145.0989 O.2     1  UNL111     -0.3381
      6 N         119.3414  156.9975  146.6671 N.4     1  UNL111      0.4278
      7 C         119.2914  154.1535  147.1931 C.3     1  UNL111      0.0575
      8 C         120.0870  154.6912  145.9794 C.3     1  UNL111      0.0064
      9 C         119.8172  152.7850  147.6751 C.3     1  UNL111      0.0965
     10 C         121.0361  152.3412  146.7645 C.3     1  UNL111      0.0751
     11 C         119.3153  155.9674  145.5143 C.3     1  UNL111     -0.0174
     12 C         121.5572  154.8606  146.4434 C.3     1  UNL111     -0.0198
     13 C         122.1675  153.4607  146.9114 C.3     1  UNL111      0.0180
     14 C         119.1562  155.1652  148.3489 C.3     1  UNL111     -0.0248
     15 C         117.9502  153.7609  146.6969 C.3     1  UNL111      0.0257
     16 C         120.1678  153.6075  144.8922 C.2     1  UNL111     -0.0815
     17 C         117.8287  155.6582  145.0773 C.3     1  UNL111     -0.0205
     18 C         120.5974  152.4059  145.3157 C.2     1  UNL111     -0.0595
     19 C         118.6293  156.5285  147.9128 C.3     1  UNL111     -0.0360
     20 C         123.5749  153.2302  146.2273 C.3     1  UNL111      0.0167
     21 C         117.1967  154.4690  145.7708 C.3     1  UNL111     -0.0419
     22 C         117.6608  152.4680  147.0669 C.3     1  UNL111      0.1143
     23 C         124.1763  151.8195  146.4374 C.3     1  UNL111     -0.0346
     24 C         118.8996  158.3793  146.2526 C.3     1  UNL111     -0.0440
     25 C         115.9754  153.9113  145.3837 C.3     1  UNL111     -0.0561
     26 C         124.5565  154.2982  146.7579 C.3     1  UNL111     -0.0388
     27 C         116.4810  151.8917  146.6499 C.3     1  UNL111      0.1318
     28 C         115.6021  152.6346  145.8510 C.3     1  UNL111     -0.0054
     29 C         121.6291  150.6393  148.3809 C.3     1  UNL111      0.0034
     30 C         125.5947  151.6230  145.8794 C.3     1  UNL111     -0.0581
     31 C         126.0365  150.1707  145.9942 C.3     1  UNL111     -0.0683
     32 C         116.7512  149.6732  146.1258 C.2     1  UNL111      0.2266
     33 C         116.4685  148.2853  146.6192 C.3     1  UNL111      0.0573
     34 H         123.1304  152.6562  144.4010 H       1  UNL111      0.2375
     35 H         120.3302  157.1275  146.9163 H       1  UNL111      0.1331
     36 H         120.1687  152.8541  148.7127 H       1  UNL111      0.1440
     37 H         119.8474  156.4511  144.6860 H       1  UNL111      0.0869
     38 H         121.6578  155.5639  147.2762 H       1  UNL111      0.0468
     39 H         122.1312  155.3050  145.6215 H       1  UNL111      0.0468
     40 H         122.3735  153.5362  147.9893 H       1  UNL111      0.0723
     41 H         120.1297  155.3050  148.8348 H       1  UNL111      0.0546
     42 H         118.4928  154.7730  149.1314 H       1  UNL111      0.0546
     43 H         119.8567  153.7689  143.8650 H       1  UNL111      0.0831
     44 H         117.8585  155.4187  144.0058 H       1  UNL111      0.0617
     45 H         117.1775  156.5297  145.1851 H       1  UNL111      0.0617
     46 H         120.6512  151.5319  144.6749 H       1  UNL111      0.0934
     47 H         117.5548  156.5112  147.7049 H       1  UNL111      0.0739
     48 H         118.8162  157.2743  148.6932 H       1  UNL111      0.0739
     49 H         123.5492  151.0827  145.9247 H       1  UNL111      0.0460
     50 H         124.1865  151.5785  147.5064 H       1  UNL111      0.0460
     51 H         117.8205  158.3819  146.0878 H       1  UNL111      0.0667
     52 H         119.4416  158.6527  145.3440 H       1  UNL111      0.0667
     53 H         119.1620  159.0665  147.0616 H       1  UNL111      0.0667
     54 H         115.3336  154.4145  144.6628 H       1  UNL111      0.0940
     55 H         124.1551  155.3118  146.6584 H       1  UNL111      0.0400
     56 H         125.4881  154.3096  146.1819 H       1  UNL111      0.0400
     57 H         124.7947  154.1303  147.8134 H       1  UNL111      0.0400
     58 H         114.6681  152.1889  145.5164 H       1  UNL111      0.1154
     59 H         122.1838  149.6973  148.4112 H       1  UNL111      0.0829
     60 H         120.6507  150.4642  148.8354 H       1  UNL111      0.0829
     61 H         122.1861  151.3852  148.9542 H       1  UNL111      0.0829
     62 H         126.3105  152.2417  146.4304 H       1  UNL111      0.0327
     63 H         125.6350  151.9259  144.8273 H       1  UNL111      0.0327
     64 H         126.0317  149.8411  147.0381 H       1  UNL111      0.0258
     65 H         127.0525  150.0523  145.6048 H       1  UNL111      0.0258
     66 H         125.3751  149.5122  145.4222 H       1  UNL111      0.0258
     67 H         116.8351  148.1734  147.6428 H       1  UNL111      0.0797
     68 H         116.9914  147.5628  145.9860 H       1  UNL111      0.0797
     69 H         115.3952  148.0866  146.5699 H       1  UNL111      0.0797
@<TRIPOS>UNITY_ATOM_ATTR
6 1
charge 1
@<TRIPOS>BOND
     1     1     9    1
     2     1    22    1
     3     2    10    1
     4     2    29    1
     5     3    20    1
     6     4    27    1
     7     4    32    1
     8     5    32    2
     9     6    11    1
    10     6    19    1
    11     6    24    1
    12     7     8    1
    13     7     9    1
    14     7    14    1
    15     7    15    1
    16     8    11    1
    17     8    12    1
    18     8    16    1
    19     9    10    1
    20    10    13    1
    21    10    18    1
    22    11    17    1
    23    12    13    1
    24    13    20    1
    25    14    19    1
    26    15    21   ar
    27    15    22   ar
    28    16    18    2
    29    17    21    1
    30    20    23    1
    31    20    26    1
    32    21    25   ar
    33    22    27   ar
    34    23    30    1
    35    25    28   ar
    36    27    28   ar
    37    30    31    1
    38    32    33    1
    39     3    34    1
    40     6    35    1
    41     9    36    1
    42    11    37    1
    43    12    38    1
    44    12    39    1
    45    13    40    1
    46    14    41    1
    47    14    42    1
    48    16    43    1
    49    17    44    1
    50    17    45    1
    51    18    46    1
    52    19    47    1
    53    19    48    1
    54    23    49    1
    55    23    50    1
    56    24    51    1
    57    24    52    1
    58    24    53    1
    59    25    54    1
    60    26    55    1
    61    26    56    1
    62    26    57    1
    63    28    58    1
    64    29    59    1
    65    29    60    1
    66    29    61    1
    67    30    62    1
    68    30    63    1
    69    31    64    1
    70    31    65    1
    71    31    66    1
    72    33    67    1
    73    33    68    1
    74    33    69    1
@<TRIPOS>MOLECULE
73951893
 64 69 0 0 0
SMALL
GASTEIGER

@<TRIPOS>ATOM
      1 O         119.6907  154.0902  148.4877 O.3     1  UNL111     -0.5421
      2 O         117.9403  151.4804  148.5052 O.3     1  UNL111     -0.4404
      3 O         116.0130  152.1480  146.8244 O.3     1  UNL111     -0.4501
      4 O         119.3005  156.9627  148.3231 O.3     1  UNL111     -0.5485
      5 N         123.4328  152.0736  145.3202 N.4     1  UNL111      0.4278
      6 C         121.2276  152.8368  147.0517 C.3     1  UNL111      0.0574
      7 C         120.8852  152.0624  145.7557 C.3     1  UNL111      0.0064
      8 C         120.1218  152.7385  148.1345 C.3     1  UNL111      0.0964
      9 C         118.9918  151.7773  147.5924 C.3     1  UNL111      0.0751
     10 C         122.0317  152.4274  144.7517 C.3     1  UNL111     -0.0174
     11 C         119.4702  152.4488  145.1792 C.3     1  UNL111     -0.0198
     12 C         118.3756  152.4243  146.2937 C.3     1  UNL111      0.0180
     13 C         122.6300  152.5198  147.6331 C.3     1  UNL111     -0.0248
     14 C         121.1414  154.2746  146.7127 C.ar    1  UNL111      0.0245
     15 C         120.6549  150.6206  146.1961 C.2     1  UNL111     -0.0815
     16 C         122.0619  153.9690  144.4086 C.3     1  UNL111     -0.0205
     17 C         119.7056  150.4860  147.1467 C.2     1  UNL111     -0.0595
     18 C         123.4813  151.6234  146.7499 C.3     1  UNL111     -0.0360
     19 C         116.9878  151.8854  145.8063 C.3     1  UNL111      0.0167
     20 C         121.6089  154.8622  145.5446 C.ar    1  UNL111     -0.0421
     21 C         120.3272  154.9296  147.6074 C.ar    1  UNL111      0.1056
     22 C         116.4742  152.6040  144.5284 C.3     1  UNL111     -0.0346
     23 C         124.1846  151.1281  144.4181 C.3     1  UNL111     -0.0440
     24 C         121.4036  156.2366  145.4044 C.ar    1  UNL111     -0.0572
     25 C         116.9591  150.3721  145.5510 C.3     1  UNL111     -0.0388
     26 C         120.1027  156.2787  147.4668 C.ar    1  UNL111      0.0918
     27 C         120.6762  156.9468  146.3831 C.ar    1  UNL111     -0.0140
     28 C         118.3078  151.2012  149.8484 C.3     1  UNL111      0.0034
     29 C         116.3344  154.1271  144.6561 C.3     1  UNL111     -0.0581
     30 C         115.7299  154.7331  143.3977 C.3     1  UNL111     -0.0683
     31 H         116.3739  151.8047  147.6680 H       1  UNL111      0.2375
     32 H         118.9294  156.3125  148.9489 H       1  UNL111      0.3393
     33 H         123.9864  152.9424  145.3140 H       1  UNL111      0.1331
     34 H         120.5219  152.3191  149.0649 H       1  UNL111      0.1440
     35 H         121.9199  151.8564  143.8222 H       1  UNL111      0.0869
     36 H         119.2253  151.7487  144.3696 H       1  UNL111      0.0468
     37 H         119.4566  153.4358  144.7074 H       1  UNL111      0.0468
     38 H         118.1664  153.4648  146.5747 H       1  UNL111      0.0723
     39 H         122.5492  152.0162  148.6042 H       1  UNL111      0.0546
     40 H         123.1882  153.4444  147.8352 H       1  UNL111      0.0546
     41 H         121.1520  149.7686  145.7453 H       1  UNL111      0.0831
     42 H         121.3673  154.1290  143.5734 H       1  UNL111      0.0617
     43 H         123.0513  154.2832  144.0563 H       1  UNL111      0.0617
     44 H         119.3908  149.5215  147.5331 H       1  UNL111      0.0934
     45 H         124.5300  151.6661  147.0665 H       1  UNL111      0.0739
     46 H         123.1674  150.5765  146.7926 H       1  UNL111      0.0739
     47 H         115.4790  152.2068  144.2841 H       1  UNL111      0.0460
     48 H         117.1189  152.3690  143.6732 H       1  UNL111      0.0460
     49 H         123.6448  150.1782  144.3861 H       1  UNL111      0.0667
     50 H         125.1902  150.9956  144.8259 H       1  UNL111      0.0667
     51 H         124.2422  151.5839  143.4262 H       1  UNL111      0.0667
     52 H         121.7362  156.7672  144.5140 H       1  UNL111      0.0939
     53 H         117.1168  149.8026  146.4719 H       1  UNL111      0.0400
     54 H         117.6985  150.0630  144.8070 H       1  UNL111      0.0400
     55 H         115.9708  150.0616  145.1901 H       1  UNL111      0.0400
     56 H         120.4932  158.0122  146.2564 H       1  UNL111      0.1139
     57 H         117.4238  150.8214  150.3682 H       1  UNL111      0.0829
     58 H         118.6271  152.1156  150.3556 H       1  UNL111      0.0829
     59 H         119.0911  150.4398  149.8999 H       1  UNL111      0.0829
     60 H         117.3110  154.5912  144.8257 H       1  UNL111      0.0327
     61 H         115.6989  154.3801  145.5118 H       1  UNL111      0.0327
     62 H         116.3566  154.5279  142.5239 H       1  UNL111      0.0258
     63 H         115.6417  155.8188  143.5051 H       1  UNL111      0.0258
     64 H         114.7306  154.3288  143.2077 H       1  UNL111      0.0258
@<TRIPOS>UNITY_ATOM_ATTR
5 1
charge 1
@<TRIPOS>BOND
     1     1     8    1
     2     1    21    1
     3     2     9    1
     4     2    28    1
     5     3    19    1
     6     4    26    1
     7     5    10    1
     8     5    18    1
     9     5    23    1
    10     6     7    1
    11     6     8    1
    12     6    13    1
    13     6    14    1
    14     7    10    1
    15     7    11    1
    16     7    15    1
    17     8     9    1
    18     9    12    1
    19     9    17    1
    20    10    16    1
    21    11    12    1
    22    12    19    1
    23    13    18    1
    24    14    20   ar
    25    14    21   ar
    26    15    17    2
    27    16    20    1
    28    19    22    1
    29    19    25    1
    30    20    24   ar
    31    21    26   ar
    32    22    29    1
    33    24    27   ar
    34    26    27   ar
    35    29    30    1
    36     3    31    1
    37     4    32    1
    38     5    33    1
    39     8    34    1
    40    10    35    1
    41    11    36    1
    42    11    37    1
    43    12    38    1
    44    13    39    1
    45    13    40    1
    46    15    41    1
    47    16    42    1
    48    16    43    1
    49    17    44    1
    50    18    45    1
    51    18    46    1
    52    22    47    1
    53    22    48    1
    54    23    49    1
    55    23    50    1
    56    23    51    1
    57    24    52    1
    58    25    53    1
    59    25    54    1
    60    25    55    1
    61    27    56    1
    62    28    57    1
    63    28    58    1
    64    28    59    1
    65    29    60    1
    66    29    61    1
    67    30    62    1
    68    30    63    1
    69    30    64    1
@<TRIPOS>MOLECULE
5288826
 41 45 0 0 0
SMALL
GASTEIGER

@<TRIPOS>ATOM
      1 O         117.9006  152.5788  147.6837 O.3     1  UNL111     -0.5439
      2 O         117.0579  150.6917  146.0432 O.3     1  UNL111     -0.4348
      3 O         116.2994  154.9482  147.1281 O.3     1  UNL111     -0.5485
      4 N         123.0245  153.1452  146.8632 N.4     1  UNL111      0.4275
      5 C         120.2426  152.3192  147.0680 C.3     1  UNL111      0.0532
      6 C         121.1667  151.7274  145.9932 C.3     1  UNL111     -0.0026
      7 C         122.1785  152.8500  145.6005 C.3     1  UNL111     -0.0206
      8 C         118.9350  151.5618  147.4071 C.3     1  UNL111      0.0902
      9 C         121.0611  152.6622  148.3314 C.3     1  UNL111     -0.0259
     10 C         119.6160  153.5660  146.5394 C.ar    1  UNL111      0.0232
     11 C         121.5057  154.1345  145.0244 C.3     1  UNL111     -0.0213
     12 C         122.2235  153.6154  148.0563 C.3     1  UNL111     -0.0364
     13 C         120.1849  154.4711  145.6598 C.ar    1  UNL111     -0.0425
     14 C         118.4486  150.5686  146.3099 C.3     1  UNL111      0.0605
     15 C         120.4023  151.1429  144.8364 C.2     1  UNL111     -0.0869
     16 C         118.3210  153.6823  146.9895 C.ar    1  UNL111      0.1050
     17 C         119.1719  150.6318  144.9953 C.2     1  UNL111     -0.0672
     18 C         124.2139  154.0352  146.6048 C.3     1  UNL111     -0.0442
     19 C         119.4262  155.5952  145.3216 C.ar    1  UNL111     -0.0573
     20 C         117.5703  154.7906  146.6774 C.ar    1  UNL111      0.0917
     21 C         118.1295  155.7632  145.8494 C.ar    1  UNL111     -0.0140
     22 H         116.7784  151.5783  146.3354 H       1  UNL111      0.2424
     23 H         116.0921  154.1849  147.6980 H       1  UNL111      0.3393
     24 H         123.4397  152.2433  147.1356 H       1  UNL111      0.1328
     25 H         121.7373  150.8911  146.4232 H       1  UNL111      0.0720
     26 H         122.8974  152.4614  144.8683 H       1  UNL111      0.0854
     27 H         119.0531  150.9938  148.3390 H       1  UNL111      0.1417
     28 H         121.4587  151.7316  148.7580 H       1  UNL111      0.0544
     29 H         120.4258  153.1069  149.1085 H       1  UNL111      0.0544
     30 H         121.3090  153.9522  143.9595 H       1  UNL111      0.0615
     31 H         122.1736  154.9987  145.0776 H       1  UNL111      0.0615
     32 H         121.8892  154.6386  147.8582 H       1  UNL111      0.0738
     33 H         122.9053  153.6362  148.9136 H       1  UNL111      0.0738
     34 H         118.5980  149.5501  146.6893 H       1  UNL111      0.1221
     35 H         120.8708  151.0847  143.8553 H       1  UNL111      0.0812
     36 H         118.6644  150.1778  144.1445 H       1  UNL111      0.0909
     37 H         123.8706  155.0601  146.4505 H       1  UNL111      0.0667
     38 H         124.7409  153.6547  145.7264 H       1  UNL111      0.0667
     39 H         124.8651  153.9802  147.4814 H       1  UNL111      0.0667
     40 H         119.8086  156.3400  144.6257 H       1  UNL111      0.0939
     41 H         117.5412  156.6373  145.5773 H       1  UNL111      0.1139
@<TRIPOS>UNITY_ATOM_ATTR
4 1
charge 1
@<TRIPOS>BOND
     1     1     8    1
     2     1    16    1
     3     2    14    1
     4     3    20    1
     5     4     7    1
     6     4    12    1
     7     4    18    1
     8     5     6    1
     9     5     8    1
    10     5     9    1
    11     5    10    1
    12     6     7    1
    13     6    15    1
    14     7    11    1
    15     8    14    1
    16     9    12    1
    17    10    13   ar
    18    10    16   ar
    19    11    13    1
    20    13    19   ar
    21    14    17    1
    22    15    17    2
    23    16    20   ar
    24    19    21   ar
    25    20    21   ar
    26     2    22    1
    27     3    23    1
    28     4    24    1
    29     6    25    1
    30     7    26    1
    31     8    27    1
    32     9    28    1
    33     9    29    1
    34    11    30    1
    35    11    31    1
    36    12    32    1
    37    12    33    1
    38    14    34    1
    39    15    35    1
    40    17    36    1
    41    18    37    1
    42    18    38    1
    43    18    39    1
    44    19    40    1
    45    21    41    1
