@<TRIPOS>MOLECULE
3345
 54 56 0 0 0
SMALL
GASTEIGER

@<TRIPOS>ATOM
      1 O         116.6567  150.4168  146.8923 O.2     1  UNL111     -0.3824
      2 N         121.1840  152.9996  146.0869 N.4     1  UNL111      0.4267
      3 N         116.8857  152.5949  146.2085 N.am    1  UNL111     -0.2907
      4 C         118.3301  152.3780  146.0063 C.3     1  UNL111      0.0176
      5 C         118.9940  153.2573  144.9400 C.3     1  UNL111     -0.0330
      6 C         119.0996  152.4919  147.3303 C.3     1  UNL111     -0.0330
      7 C         120.4562  152.8782  144.7635 C.3     1  UNL111     -0.0370
      8 C         120.5595  152.1165  147.1464 C.3     1  UNL111     -0.0370
      9 C         122.6759  152.7338  145.9035 C.3     1  UNL111     -0.0358
     10 C         123.4917  153.2709  147.0828 C.3     1  UNL111     -0.0312
     11 C         116.3856  153.9194  146.2404 C.3     1  UNL111     -0.0054
     12 C         116.1255  151.5064  146.6631 C.2     1  UNL111      0.1497
     13 C         124.9671  153.1229  146.8174 C.3     1  UNL111     -0.0753
     14 C         114.6276  151.7252  146.8436 C.3     1  UNL111      0.0336
     15 C         116.1930  154.5682  147.4644 C.3     1  UNL111     -0.0556
     16 C         116.0755  154.5757  145.0462 C.3     1  UNL111     -0.0556
     17 C         113.8792  150.4194  147.0563 C.3     1  UNL111     -0.0446
     18 C         125.6330  151.9358  147.1536 C.3     1  UNL111     -0.0811
     19 C         125.6854  154.1561  146.1992 C.3     1  UNL111     -0.0811
     20 C         115.7068  155.8756  147.4905 C.3     1  UNL111     -0.0787
     21 C         115.5885  155.8830  145.0765 C.3     1  UNL111     -0.0787
     22 C         115.4079  156.5327  146.2973 C.3     1  UNL111     -0.0844
     23 C         126.9929  151.7877  146.8780 C.3     1  UNL111     -0.0857
     24 C         127.0451  154.0034  145.9250 C.3     1  UNL111     -0.0857
     25 C         127.6977  152.8200  146.2631 C.3     1  UNL111     -0.0868
     26 H         121.0921  153.9791  146.3930 H       1  UNL111      0.1323
     27 H         118.4379  151.3414  145.6563 H       1  UNL111      0.0863
     28 H         118.9329  154.3177  145.2135 H       1  UNL111      0.0550
     29 H         118.4781  153.1394  143.9802 H       1  UNL111      0.0550
     30 H         118.6571  151.8376  148.0906 H       1  UNL111      0.0550
     31 H         119.0296  153.5141  147.7231 H       1  UNL111      0.0550
     32 H         120.5753  151.8470  144.4125 H       1  UNL111      0.0741
     33 H         120.9406  153.5620  144.0586 H       1  UNL111      0.0741
     34 H         121.1036  152.2758  148.0808 H       1  UNL111      0.0741
     35 H         120.6792  151.0756  146.8262 H       1  UNL111      0.0741
     36 H         122.9750  153.2444  144.9805 H       1  UNL111      0.0751
     37 H         122.8041  151.6544  145.7621 H       1  UNL111      0.0751
     38 H         123.2437  152.7427  148.0102 H       1  UNL111      0.0589
     39 H         123.2549  154.3273  147.2613 H       1  UNL111      0.0589
     40 H         114.2254  152.2231  145.9551 H       1  UNL111      0.0734
     41 H         114.4648  152.3692  147.7132 H       1  UNL111      0.0734
     42 H         116.4118  154.0651  148.4028 H       1  UNL111      0.0993
     43 H         116.1816  154.0712  144.0897 H       1  UNL111      0.0993
     44 H         114.0255  149.7408  146.2094 H       1  UNL111      0.0319
     45 H         112.8065  150.6084  147.1629 H       1  UNL111      0.0319
     46 H         114.2267  149.9085  147.9603 H       1  UNL111      0.0319
     47 H         125.1096  151.1165  147.6420 H       1  UNL111      0.0893
     48 H         125.2035  155.0939  145.9316 H       1  UNL111      0.0893
     49 H         115.5482  156.3808  148.4408 H       1  UNL111      0.0890
     50 H         115.3330  156.3924  144.1498 H       1  UNL111      0.0890
     51 H         115.0173  157.5482  146.3196 H       1  UNL111      0.0876
     52 H         127.5088  150.8687  147.1479 H       1  UNL111      0.0876
     53 H         127.6018  154.8099  145.4524 H       1  UNL111      0.0876
     54 H         128.7590  152.7049  146.0540 H       1  UNL111      0.0874
@<TRIPOS>UNITY_ATOM_ATTR
2 1
charge 1
@<TRIPOS>BOND
     1     1    12    2
     2     2     7    1
     3     2     8    1
     4     2     9    1
     5     3     4    1
     6     3    11    1
     7     3    12   am
     8     4     5    1
     9     4     6    1
    10     5     7    1
    11     6     8    1
    12     9    10    1
    13    10    13    1
    14    11    15   ar
    15    11    16   ar
    16    12    14    1
    17    13    18   ar
    18    13    19   ar
    19    14    17    1
    20    15    20   ar
    21    16    21   ar
    22    18    23   ar
    23    19    24   ar
    24    20    22   ar
    25    21    22   ar
    26    23    25   ar
    27    24    25   ar
    28     2    26    1
    29     4    27    1
    30     5    28    1
    31     5    29    1
    32     6    30    1
    33     6    31    1
    34     7    32    1
    35     7    33    1
    36     8    34    1
    37     8    35    1
    38     9    36    1
    39     9    37    1
    40    10    38    1
    41    10    39    1
    42    14    40    1
    43    14    41    1
    44    15    42    1
    45    16    43    1
    46    17    44    1
    47    17    45    1
    48    17    46    1
    49    18    47    1
    50    19    48    1
    51    20    49    1
    52    21    50    1
    53    22    51    1
    54    23    52    1
    55    24    53    1
    56    25    54    1
@<TRIPOS>MOLECULE
45039251
 31 33 0 0 0
SMALL
GASTEIGER

@<TRIPOS>ATOM
      1 O         116.9795  156.2544  146.8331 O.2     1  UNL111     -0.3751
      2 N         121.3479  153.8576  144.8032 N.4     1  UNL111      0.4556
      3 N         116.9383  153.9357  146.5460 N.am    1  UNL111     -0.2643
      4 C         118.2768  153.8612  146.1777 C.3     1  UNL111      0.1077
      5 C         119.2406  154.9299  146.2423 C.3     1  UNL111      0.0830
      6 C         118.8752  152.7700  145.4461 C.3     1  UNL111      0.0830
      7 C         120.6446  154.9011  145.5951 C.3     1  UNL111      0.0648
      8 C         120.2935  152.8085  144.8227 C.3     1  UNL111      0.0648
      9 C         122.5934  153.4287  145.4070 C.3     1  UNL111      0.0661
     10 C         123.9135  152.9783  146.0393 C.3     1  UNL111      0.0776
     11 C         116.0956  152.7729  146.4845 C.3     1  UNL111     -0.0002
     12 C         116.3973  155.1793  146.9702 C.2     1  UNL111      0.1818
     13 C         125.1442  152.5613  146.6253 C.2     1  UNL111     -0.0058
     14 C         115.1129  155.2059  147.6632 C.3     1  UNL111      0.1394
     15 C         114.8534  152.8228  145.8341 C.3     1  UNL111     -0.0549
     16 C         116.5155  151.5580  147.0484 C.3     1  UNL111     -0.0549
     17 C         113.7598  155.2300  148.3993 C.3     1  UNL111      0.0514
     18 C         125.1351  151.7940  147.7875 C.2     1  UNL111     -0.0052
     19 C         126.3520  152.9227  146.0331 C.2     1  UNL111     -0.0052
     20 C         114.0447  151.6860  145.7639 C.3     1  UNL111     -0.0786
     21 C         115.7025  150.4243  146.9778 C.3     1  UNL111     -0.0786
     22 C         114.4684  150.4895  146.3364 C.3     1  UNL111     -0.0844
     23 C         126.3385  151.3869  148.3591 C.2     1  UNL111     -0.0019
     24 C         127.5546  152.5150  146.6058 C.2     1  UNL111     -0.0019
     25 C         127.5475  151.7474  147.7683 C.2     1  UNL111     -0.0007
     26 H         121.4987  154.1902  143.8429 H       1  UNL111      0.1720
     27 H         114.4982  153.7275  145.3452 H       1  UNL111      0.0994
     28 H         117.4547  151.4804  147.5901 H       1  UNL111      0.0994
     29 H         113.0798  151.7335  145.2625 H       1  UNL111      0.0890
     30 H         116.0226  149.4909  147.4361 H       1  UNL111      0.0890
     31 H         113.8311  149.6086  146.2880 H       1  UNL111      0.0876
@<TRIPOS>UNITY_ATOM_ATTR
2 1
charge 1
@<TRIPOS>BOND
     1     1    12    2
     2     2     7    1
     3     2     8    1
     4     2     9    1
     5     3     4    1
     6     3    11    1
     7     3    12   am
     8     4     5    1
     9     4     6    1
    10     5     7    1
    11     6     8    1
    12     9    10    1
    13    10    13    1
    14    11    15   ar
    15    11    16   ar
    16    12    14    1
    17    13    18    2
    18    13    19    1
    19    14    17    1
    20    15    20   ar
    21    16    21   ar
    22    18    23    1
    23    19    24    2
    24    20    22   ar
    25    21    22   ar
    26    23    25    2
    27    24    25    1
    28     2    26    1
    29    15    27    1
    30    16    28    1
    31    20    29    1
    32    21    30    1
    33    22    31    1
@<TRIPOS>MOLECULE
527016
 60 62 0 0 0
SMALL
GASTEIGER

@<TRIPOS>ATOM
      1 O         116.7392  150.4721  146.7003 O.2     1  UNL111     -0.3822
      2 N         121.3303  153.2636  146.8325 N.4     1  UNL111      0.4271
      3 N         117.0327  152.7447  146.6965 N.am    1  UNL111     -0.2906
      4 C         118.4628  152.5853  147.0225 C.3     1  UNL111      0.0176
      5 C         119.0789  153.7563  147.7915 C.3     1  UNL111     -0.0328
      6 C         119.2925  152.2892  145.7699 C.3     1  UNL111     -0.0328
      7 C         120.5430  153.5078  148.1126 C.3     1  UNL111     -0.0365
      8 C         120.7548  152.0523  146.1098 C.3     1  UNL111     -0.0365
      9 C         122.8721  153.1548  147.0707 C.3     1  UNL111     -0.0366
     10 C         123.6190  153.0641  145.7130 C.3     1  UNL111     -0.0297
     11 C         123.3493  154.3837  147.8605 C.3     1  UNL111     -0.0589
     12 C         116.5441  154.0280  146.3577 C.3     1  UNL111     -0.0053
     13 C         116.2478  151.5930  146.5511 C.2     1  UNL111      0.1504
     14 C         125.1152  152.9140  145.8512 C.3     1  UNL111     -0.0745
     15 C         114.7772  151.7935  146.1960 C.3     1  UNL111      0.0353
     16 C         116.0082  154.8469  147.3556 C.3     1  UNL111     -0.0556
     17 C         116.6077  154.4785  145.0364 C.3     1  UNL111     -0.0556
     18 C         113.9935  150.4830  146.1788 C.3     1  UNL111     -0.0413
     19 C         125.9671  153.9938  145.5772 C.3     1  UNL111     -0.0810
     20 C         125.6726  151.6959  146.2664 C.3     1  UNL111     -0.0810
     21 C         115.5506  156.1239  147.0323 C.3     1  UNL111     -0.0787
     22 C         116.1485  155.7564  144.7179 C.3     1  UNL111     -0.0787
     23 C         127.3474  153.8619  145.7336 C.3     1  UNL111     -0.0857
     24 C         127.0541  151.5669  146.4160 C.3     1  UNL111     -0.0857
     25 C         115.6245  156.5788  145.7157 C.3     1  UNL111     -0.0844
     26 C         112.5335  150.7175  145.8236 C.3     1  UNL111     -0.0653
     27 C         127.8900  152.6501  146.1543 C.3     1  UNL111     -0.0868
     28 H         121.1938  154.0858  146.2267 H       1  UNL111      0.1335
     29 H         118.5366  151.7058  147.6778 H       1  UNL111      0.0863
     30 H         118.5315  153.9168  148.7281 H       1  UNL111      0.0551
     31 H         119.0036  154.6864  147.2145 H       1  UNL111      0.0551
     32 H         119.2193  153.1207  145.0585 H       1  UNL111      0.0551
     33 H         118.8993  151.4058  145.2528 H       1  UNL111      0.0551
     34 H         120.9351  154.4052  148.5940 H       1  UNL111      0.0743
     35 H         120.6900  152.6398  148.7643 H       1  UNL111      0.0743
     36 H         120.8989  151.1804  146.7571 H       1  UNL111      0.0743
     37 H         121.3030  151.9126  145.1777 H       1  UNL111      0.0743
     38 H         123.0239  152.2459  147.6647 H       1  UNL111      0.0798
     39 H         123.3855  153.9451  145.1009 H       1  UNL111      0.0601
     40 H         123.2839  152.1991  145.1325 H       1  UNL111      0.0601
     41 H         123.0353  155.3149  147.3763 H       1  UNL111      0.0404
     42 H         124.4383  154.4068  147.9596 H       1  UNL111      0.0404
     43 H         122.9720  154.3772  148.8871 H       1  UNL111      0.0404
     44 H         114.7181  152.2603  145.2067 H       1  UNL111      0.0745
     45 H         114.3265  152.4703  146.9302 H       1  UNL111      0.0745
     46 H         115.9338  154.4960  148.3817 H       1  UNL111      0.0993
     47 H         116.9930  153.8399  144.2465 H       1  UNL111      0.0993
     48 H         114.0546  149.9981  147.1602 H       1  UNL111      0.0369
     49 H         114.4355  149.7902  145.4530 H       1  UNL111      0.0369
     50 H         125.5713  154.9507  145.2433 H       1  UNL111      0.0894
     51 H         125.0463  150.8296  146.4670 H       1  UNL111      0.0894
     52 H         115.1252  156.7628  147.8032 H       1  UNL111      0.0890
     53 H         116.1846  156.1100  143.6898 H       1  UNL111      0.0890
     54 H         128.0039  154.7036  145.5236 H       1  UNL111      0.0876
     55 H         127.4844  150.6188  146.7317 H       1  UNL111      0.0876
     56 H         115.2576  157.5719  145.4637 H       1  UNL111      0.0876
     57 H         112.0552  151.3835  146.5490 H       1  UNL111      0.0262
     58 H         111.9860  149.7699  145.8200 H       1  UNL111      0.0262
     59 H         112.4393  151.1682  144.8304 H       1  UNL111      0.0262
     60 H         128.9667  152.5477  146.2704 H       1  UNL111      0.0874
@<TRIPOS>UNITY_ATOM_ATTR
2 1
charge 1
@<TRIPOS>BOND
     1     1    13    2
     2     2     7    1
     3     2     8    1
     4     2     9    1
     5     3     4    1
     6     3    12    1
     7     3    13   am
     8     4     5    1
     9     4     6    1
    10     5     7    1
    11     6     8    1
    12     9    10    1
    13     9    11    1
    14    10    14    1
    15    12    16   ar
    16    12    17   ar
    17    13    15    1
    18    14    19   ar
    19    14    20   ar
    20    15    18    1
    21    16    21   ar
    22    17    22   ar
    23    18    26    1
    24    19    23   ar
    25    20    24   ar
    26    21    25   ar
    27    22    25   ar
    28    23    27   ar
    29    24    27   ar
    30     2    28    1
    31     4    29    1
    32     5    30    1
    33     5    31    1
    34     6    32    1
    35     6    33    1
    36     7    34    1
    37     7    35    1
    38     8    36    1
    39     8    37    1
    40     9    38    1
    41    10    39    1
    42    10    40    1
    43    11    41    1
    44    11    42    1
    45    11    43    1
    46    15    44    1
    47    15    45    1
    48    16    46    1
    49    17    47    1
    50    18    48    1
    51    18    49    1
    52    19    50    1
    53    20    51    1
    54    21    52    1
    55    22    53    1
    56    23    54    1
    57    24    55    1
    58    25    56    1
    59    26    57    1
    60    26    58    1
    61    26    59    1
    62    27    60    1
@<TRIPOS>MOLECULE
137700000
 57 59 0 0 0
SMALL
GASTEIGER

@<TRIPOS>ATOM
      1 F         115.0099  149.5789  147.7782 F       1  UNL111     -0.2890
      2 O         118.2338  155.6293  146.1052 O.2     1  UNL111     -0.3811
      3 N         121.6654  153.2285  146.6936 N.4     1  UNL111      0.4267
      4 N         117.4064  153.5091  146.3987 N.am    1  UNL111     -0.2876
      5 C         118.7689  152.9426  146.5588 C.3     1  UNL111      0.0180
      6 C         119.6247  153.1296  145.2951 C.3     1  UNL111     -0.0330
      7 C         119.4711  153.4746  147.8168 C.3     1  UNL111     -0.0330
      8 C         121.0294  152.5855  145.4825 C.3     1  UNL111     -0.0370
      9 C         120.8792  152.9230  147.9489 C.3     1  UNL111     -0.0370
     10 C         123.1311  152.8461  146.8614 C.3     1  UNL111     -0.0358
     11 C         117.2506  154.8975  146.2660 C.2     1  UNL111      0.1523
     12 C         124.0243  153.6028  145.8742 C.3     1  UNL111     -0.0312
     13 C         116.3446  152.5741  146.2178 C.3     1  UNL111      0.0103
     14 C         115.8622  155.5097  146.5077 C.3     1  UNL111      0.0357
     15 C         125.4688  153.2253  146.0763 C.3     1  UNL111     -0.0753
     16 C         116.1752  151.5149  147.1151 C.3     1  UNL111      0.0063
     17 C         115.5024  152.6562  145.0994 C.3     1  UNL111     -0.0507
     18 C         115.7841  156.9193  145.9204 C.3     1  UNL111     -0.0428
     19 C         115.5909  155.5470  148.0115 C.3     1  UNL111     -0.0428
     20 C         115.1639  150.5820  146.9048 C.3     1  UNL111      0.0901
     21 C         114.4897  151.7127  144.8979 C.3     1  UNL111     -0.0632
     22 C         126.2571  153.9047  147.0157 C.3     1  UNL111     -0.0811
     23 C         126.0318  152.1634  145.3543 C.3     1  UNL111     -0.0811
     24 C         114.3188  150.6717  145.8068 C.3     1  UNL111     -0.0223
     25 C         127.5840  153.5275  147.2271 C.3     1  UNL111     -0.0857
     26 C         127.3593  151.7905  145.5681 C.3     1  UNL111     -0.0857
     27 C         128.1339  152.4708  146.5049 C.3     1  UNL111     -0.0868
     28 H         121.6317  154.2524  146.5628 H       1  UNL111      0.1323
     29 H         118.6784  151.8565  146.6950 H       1  UNL111      0.0864
     30 H         119.7015  154.1828  145.0084 H       1  UNL111      0.0550
     31 H         119.1466  152.6205  144.4492 H       1  UNL111      0.0550
     32 H         118.8878  153.2044  148.7056 H       1  UNL111      0.0550
     33 H         119.5283  154.5681  147.8139 H       1  UNL111      0.0550
     34 H         121.0311  151.5013  145.6405 H       1  UNL111      0.0741
     35 H         121.6417  152.8239  144.6089 H       1  UNL111      0.0741
     36 H         121.3935  153.4027  148.7883 H       1  UNL111      0.0741
     37 H         120.8859  151.8364  148.0906 H       1  UNL111      0.0741
     38 H         123.2025  151.7583  146.7462 H       1  UNL111      0.0751
     39 H         123.4141  153.1048  147.8885 H       1  UNL111      0.0751
     40 H         123.9057  154.6856  146.0064 H       1  UNL111      0.0589
     41 H         123.7419  153.3918  144.8370 H       1  UNL111      0.0589
     42 H         115.0776  154.9248  146.0296 H       1  UNL111      0.0783
     43 H         116.7891  151.4122  148.0033 H       1  UNL111      0.1208
     44 H         115.6371  153.4370  144.3534 H       1  UNL111      0.0999
     45 H         116.4996  157.5979  146.3978 H       1  UNL111      0.0331
     46 H         114.7814  157.3396  146.0526 H       1  UNL111      0.0331
     47 H         116.0050  156.9031  144.8476 H       1  UNL111      0.0331
     48 H         116.3545  156.1316  148.5373 H       1  UNL111      0.0331
     49 H         115.5968  154.5403  148.4421 H       1  UNL111      0.0331
     50 H         114.6141  155.9957  148.2212 H       1  UNL111      0.0331
     51 H         113.8394  151.7864  144.0287 H       1  UNL111      0.0920
     52 H         125.8561  154.7390  147.5874 H       1  UNL111      0.0893
     53 H         125.4526  151.6197  144.6111 H       1  UNL111      0.0893
     54 H         113.5369  149.9311  145.6654 H       1  UNL111      0.1090
     55 H         128.1954  154.0614  147.9515 H       1  UNL111      0.0876
     56 H         127.7958  150.9720  144.9999 H       1  UNL111      0.0876
     57 H         129.1702  152.1822  146.6668 H       1  UNL111      0.0874
@<TRIPOS>UNITY_ATOM_ATTR
3 1
charge 1
@<TRIPOS>BOND
     1     1    20    1
     2     2    11    2
     3     3     8    1
     4     3     9    1
     5     3    10    1
     6     4     5    1
     7     4    11   am
     8     4    13    1
     9     5     6    1
    10     5     7    1
    11     6     8    1
    12     7     9    1
    13    10    12    1
    14    11    14    1
    15    12    15    1
    16    13    16   ar
    17    13    17   ar
    18    14    18    1
    19    14    19    1
    20    15    22   ar
    21    15    23   ar
    22    16    20   ar
    23    17    21   ar
    24    20    24   ar
    25    21    24   ar
    26    22    25   ar
    27    23    26   ar
    28    25    27   ar
    29    26    27   ar
    30     3    28    1
    31     5    29    1
    32     6    30    1
    33     6    31    1
    34     7    32    1
    35     7    33    1
    36     8    34    1
    37     8    35    1
    38     9    36    1
    39     9    37    1
    40    10    38    1
    41    10    39    1
    42    12    40    1
    43    12    41    1
    44    14    42    1
    45    16    43    1
    46    17    44    1
    47    18    45    1
    48    18    46    1
    49    18    47    1
    50    19    48    1
    51    19    49    1
    52    19    50    1
    53    21    51    1
    54    22    52    1
    55    23    53    1
    56    24    54    1
    57    25    55    1
    58    26    56    1
    59    27    57    1
@<TRIPOS>MOLECULE
129522102
 57 59 0 0 0
SMALL
GASTEIGER

@<TRIPOS>ATOM
      1 F         117.1759  155.0501  148.1893 F       1  UNL111     -0.2794
      2 O         118.1033  150.7516  146.0989 O.2     1  UNL111     -0.3819
      3 N         121.6276  153.0422  146.6297 N.4     1  UNL111      0.4267
      4 N         117.3591  152.9114  146.3439 N.am    1  UNL111     -0.2756
      5 C         118.7439  153.4256  146.4826 C.3     1  UNL111      0.0201
      6 C         119.4281  152.9087  147.7568 C.3     1  UNL111     -0.0327
      7 C         119.5912  153.1583  145.2269 C.3     1  UNL111     -0.0327
      8 C         120.8508  153.4222  147.8725 C.3     1  UNL111     -0.0370
      9 C         121.0137  153.6622  145.3958 C.3     1  UNL111     -0.0370
     10 C         123.1061  153.3722  146.7890 C.3     1  UNL111     -0.0358
     11 C         123.9669  152.5831  145.7983 C.3     1  UNL111     -0.0312
     12 C         116.3052  153.8815  146.3022 C.3     1  UNL111      0.0565
     13 C         117.1528  151.5270  146.2451 C.2     1  UNL111      0.1526
     14 C         115.7332  150.9881  146.4002 C.3     1  UNL111      0.0356
     15 C         125.4297  152.8556  146.0342 C.3     1  UNL111     -0.0753
     16 C         116.2559  154.9474  147.2164 C.3     1  UNL111      0.1134
     17 C         115.3187  153.8221  145.3095 C.3     1  UNL111     -0.0397
     18 C         115.7273  149.5298  146.8626 C.3     1  UNL111     -0.0413
     19 C         126.0632  153.9312  145.3960 C.3     1  UNL111     -0.0811
     20 C         126.1670  152.0591  146.9215 C.3     1  UNL111     -0.0811
     21 C         115.2436  155.9030  147.1696 C.3     1  UNL111     -0.0163
     22 C         114.3011  154.7812  145.2565 C.3     1  UNL111     -0.0738
     23 C         114.3112  149.0139  147.0608 C.3     1  UNL111     -0.0653
     24 C         114.2604  155.8173  146.1881 C.3     1  UNL111     -0.0688
     25 C         127.4102  154.2021  145.6403 C.3     1  UNL111     -0.0857
     26 C         127.5136  152.3340  147.1632 C.3     1  UNL111     -0.0857
     27 C         128.1340  153.4050  146.5241 C.3     1  UNL111     -0.0868
     28 H         121.5548  152.0164  146.5375 H       1  UNL111      0.1323
     29 H         118.7024  154.5195  146.5631 H       1  UNL111      0.0866
     30 H         119.4522  151.8140  147.7823 H       1  UNL111      0.0551
     31 H         118.8565  153.2179  148.6397 H       1  UNL111      0.0551
     32 H         119.1300  153.6503  144.3617 H       1  UNL111      0.0551
     33 H         119.6334  152.0930  144.9811 H       1  UNL111      0.0551
     34 H         120.8923  154.5126  147.9719 H       1  UNL111      0.0741
     35 H         121.3497  152.9587  148.7301 H       1  UNL111      0.0741
     36 H         121.6160  153.3706  144.5317 H       1  UNL111      0.0741
     37 H         121.0531  154.7507  145.5140 H       1  UNL111      0.0741
     38 H         123.3829  153.1042  147.8155 H       1  UNL111      0.0751
     39 H         123.2164  154.4564  146.6710 H       1  UNL111      0.0751
     40 H         123.7208  152.8416  144.7625 H       1  UNL111      0.0589
     41 H         123.7728  151.5076  145.8971 H       1  UNL111      0.0589
     42 H         115.2298  151.0493  145.4308 H       1  UNL111      0.0746
     43 H         115.1850  151.5924  147.1305 H       1  UNL111      0.0746
     44 H         115.3437  153.0606  144.5345 H       1  UNL111      0.1024
     45 H         116.2835  149.4349  147.8029 H       1  UNL111      0.0369
     46 H         116.2391  148.8993  146.1257 H       1  UNL111      0.0369
     47 H         125.5245  154.5646  144.6946 H       1  UNL111      0.0893
     48 H         125.7101  151.2114  147.4279 H       1  UNL111      0.0893
     49 H         115.2229  156.7045  147.9023 H       1  UNL111      0.1105
     50 H         113.5410  154.7238  144.4790 H       1  UNL111      0.0896
     51 H         113.7833  149.5985  147.8210 H       1  UNL111      0.0262
     52 H         114.3305  147.9697  147.3882 H       1  UNL111      0.0262
     53 H         113.7404  149.0672  146.1282 H       1  UNL111      0.0262
     54 H         113.4649  156.5586  146.1449 H       1  UNL111      0.0906
     55 H         127.9012  155.0320  145.1367 H       1  UNL111      0.0876
     56 H         128.0851  151.7090  147.8462 H       1  UNL111      0.0876
     57 H         129.1854  153.6140  146.7091 H       1  UNL111      0.0874
@<TRIPOS>UNITY_ATOM_ATTR
3 1
charge 1
@<TRIPOS>BOND
     1     1    16    1
     2     2    13    2
     3     3     8    1
     4     3     9    1
     5     3    10    1
     6     4     5    1
     7     4    12    1
     8     4    13   am
     9     5     6    1
    10     5     7    1
    11     6     8    1
    12     7     9    1
    13    10    11    1
    14    11    15    1
    15    12    16   ar
    16    12    17   ar
    17    13    14    1
    18    14    18    1
    19    15    19   ar
    20    15    20   ar
    21    16    21   ar
    22    17    22   ar
    23    18    23    1
    24    19    25   ar
    25    20    26   ar
    26    21    24   ar
    27    22    24   ar
    28    25    27   ar
    29    26    27   ar
    30     3    28    1
    31     5    29    1
    32     6    30    1
    33     6    31    1
    34     7    32    1
    35     7    33    1
    36     8    34    1
    37     8    35    1
    38     9    36    1
    39     9    37    1
    40    10    38    1
    41    10    39    1
    42    11    40    1
    43    11    41    1
    44    14    42    1
    45    14    43    1
    46    17    44    1
    47    18    45    1
    48    18    46    1
    49    19    47    1
    50    20    48    1
    51    21    49    1
    52    22    50    1
    53    23    51    1
    54    23    52    1
    55    23    53    1
    56    24    54    1
    57    25    55    1
    58    26    56    1
    59    27    57    1
@<TRIPOS>MOLECULE
10545121
 51 53 0 0 0
SMALL
GASTEIGER

@<TRIPOS>ATOM
      1 F         115.9190  148.6455  146.9767 F       1  UNL111     -0.2904
      2 O         117.4234  155.9217  145.4821 O.2     1  UNL111     -0.3824
      3 N         121.8629  153.7867  147.3384 N.4     1  UNL111      0.4292
      4 N         117.6260  153.8892  146.5281 N.am    1  UNL111     -0.2902
      5 C         119.0153  154.2215  146.8966 C.3     1  UNL111      0.0176
      6 C         119.5409  153.5645  148.1788 C.3     1  UNL111     -0.0327
      7 C         119.9809  153.9462  145.7346 C.3     1  UNL111     -0.0327
      8 C         120.9431  154.0597  148.5005 C.3     1  UNL111     -0.0355
      9 C         121.3815  154.4365  146.0606 C.3     1  UNL111     -0.0355
     10 C         123.2964  154.1643  147.6718 C.3     1  UNL111     -0.0146
     11 C         117.1837  152.5489  146.6391 C.3     1  UNL111     -0.0006
     12 C         116.9040  154.8495  145.8014 C.2     1  UNL111      0.1497
     13 C         124.2963  153.5511  146.7305 C.3     1  UNL111     -0.0704
     14 C         115.4601  154.5164  145.4433 C.3     1  UNL111      0.0336
     15 C         117.2052  151.7074  145.5197 C.3     1  UNL111     -0.0401
     16 C         116.7161  152.0698  147.8681 C.3     1  UNL111     -0.0401
     17 C         124.5860  152.1785  146.7967 C.3     1  UNL111     -0.0746
     18 C         124.9374  154.3349  145.7591 C.3     1  UNL111     -0.0746
     19 C         114.7059  155.7268  144.9174 C.3     1  UNL111     -0.0446
     20 C         116.7768  150.3846  145.6366 C.3     1  UNL111     -0.0167
     21 C         116.2876  150.7464  147.9800 C.3     1  UNL111     -0.0167
     22 C         125.4926  151.6043  145.9048 C.3     1  UNL111     -0.0834
     23 C         125.8426  153.7554  144.8692 C.3     1  UNL111     -0.0834
     24 C         116.3253  149.9158  146.8653 C.3     1  UNL111      0.0844
     25 C         126.1177  152.3918  144.9410 C.3     1  UNL111     -0.0861
     26 H         121.8796  152.7711  147.1750 H       1  UNL111      0.1349
     27 H         119.0319  155.3050  147.0822 H       1  UNL111      0.0863
     28 H         119.5638  152.4726  148.0775 H       1  UNL111      0.0551
     29 H         118.8794  153.7987  149.0207 H       1  UNL111      0.0551
     30 H         119.6344  154.4413  144.8199 H       1  UNL111      0.0551
     31 H         120.0105  152.8719  145.5130 H       1  UNL111      0.0551
     32 H         120.9625  155.1380  148.6948 H       1  UNL111      0.0744
     33 H         121.3420  153.5262  149.3697 H       1  UNL111      0.0744
     34 H         122.0677  154.1558  145.2568 H       1  UNL111      0.0744
     35 H         121.4113  155.5220  146.2066 H       1  UNL111      0.0744
     36 H         123.5013  153.8078  148.6886 H       1  UNL111      0.0876
     37 H         123.3543  155.2591  147.6826 H       1  UNL111      0.0876
     38 H         114.9454  154.1375  146.3325 H       1  UNL111      0.0734
     39 H         115.4553  153.7378  144.6744 H       1  UNL111      0.0734
     40 H         117.5492  152.0707  144.5543 H       1  UNL111      0.1023
     41 H         116.6568  152.7226  148.7350 H       1  UNL111      0.1023
     42 H         124.1277  151.5398  147.5494 H       1  UNL111      0.0924
     43 H         124.7493  155.4045  145.6825 H       1  UNL111      0.0924
     44 H         114.6965  156.5348  145.6565 H       1  UNL111      0.0319
     45 H         113.6697  155.4596  144.6882 H       1  UNL111      0.0319
     46 H         115.1686  156.1130  144.0032 H       1  UNL111      0.0319
     47 H         116.7833  149.7177  144.7792 H       1  UNL111      0.1104
     48 H         115.9129  150.3587  148.9230 H       1  UNL111      0.1104
     49 H         125.7233  150.5421  145.9635 H       1  UNL111      0.0880
     50 H         126.3429  154.3669  144.1203 H       1  UNL111      0.0880
     51 H         126.8296  151.9438  144.2502 H       1  UNL111      0.0874
@<TRIPOS>UNITY_ATOM_ATTR
3 1
charge 1
@<TRIPOS>BOND
     1     1    24    1
     2     2    12    2
     3     3     8    1
     4     3     9    1
     5     3    10    1
     6     4     5    1
     7     4    11    1
     8     4    12   am
     9     5     6    1
    10     5     7    1
    11     6     8    1
    12     7     9    1
    13    10    13    1
    14    11    15   ar
    15    11    16   ar
    16    12    14    1
    17    13    17   ar
    18    13    18   ar
    19    14    19    1
    20    15    20   ar
    21    16    21   ar
    22    17    22   ar
    23    18    23   ar
    24    20    24   ar
    25    21    24   ar
    26    22    25   ar
    27    23    25   ar
    28     3    26    1
    29     5    27    1
    30     6    28    1
    31     6    29    1
    32     7    30    1
    33     7    31    1
    34     8    32    1
    35     8    33    1
    36     9    34    1
    37     9    35    1
    38    10    36    1
    39    10    37    1
    40    14    38    1
    41    14    39    1
    42    15    40    1
    43    16    41    1
    44    17    42    1
    45    18    43    1
    46    19    44    1
    47    19    45    1
    48    19    46    1
    49    20    47    1
    50    21    48    1
    51    22    49    1
    52    23    50    1
    53    25    51    1
@<TRIPOS>MOLECULE
137700045
 58 61 0 0 0
SMALL
GASTEIGER

@<TRIPOS>ATOM
      1 O         118.4367  155.6121  145.8218 O.2     1  UNL111     -0.3806
      2 N         117.5408  153.5354  146.3058 N.am    1  UNL111     -0.2897
      3 N         121.7743  153.0518  146.0920 N.4     1  UNL111      0.4267
      4 C         116.1618  155.6201  146.3623 C.3     1  UNL111      0.0421
      5 C         116.1301  156.7851  147.3317 C.3     1  UNL111     -0.0308
      6 C         115.4381  155.5058  147.6853 C.3     1  UNL111     -0.0308
      7 C         118.8751  152.8951  146.3335 C.3     1  UNL111      0.0177
      8 C         119.5726  152.9766  144.9652 C.3     1  UNL111     -0.0330
      9 C         119.7546  153.4408  147.4685 C.3     1  UNL111     -0.0330
     10 C         117.4590  154.9264  146.1152 C.2     1  UNL111      0.1541
     11 C         120.9656  152.3772  145.0057 C.3     1  UNL111     -0.0370
     12 C         121.1458  152.8336  147.4480 C.3     1  UNL111     -0.0370
     13 C         123.2335  152.6175  146.0352 C.3     1  UNL111     -0.0358
     14 C         116.3966  152.6820  146.3657 C.3     1  UNL111     -0.0048
     15 C         124.1439  153.6123  146.7609 C.3     1  UNL111     -0.0312
     16 C         115.3365  152.8364  145.4654 C.3     1  UNL111     -0.0545
     17 C         116.3286  151.6472  147.3074 C.3     1  UNL111     -0.0545
     18 C         125.5874  153.2028  146.6254 C.3     1  UNL111     -0.0753
     19 C         114.2284  151.9846  145.5127 C.3     1  UNL111     -0.0760
     20 C         115.2189  150.7975  147.3577 C.3     1  UNL111     -0.0760
     21 C         114.1658  150.9519  146.4521 C.3     1  UNL111     -0.0828
     22 C         126.1673  152.3285  147.5556 C.3     1  UNL111     -0.0811
     23 C         126.3584  153.6615  145.5482 C.3     1  UNL111     -0.0811
     24 C         112.9573  150.0654  146.5293 C.3     1  UNL111     -0.0435
     25 C         127.4947  151.9233  147.4104 C.3     1  UNL111     -0.0857
     26 C         127.6854  153.2533  145.4067 C.3     1  UNL111     -0.0857
     27 C         128.2523  152.3842  146.3362 C.3     1  UNL111     -0.0868
     28 H         121.7527  154.0648  145.8910 H       1  UNL111      0.1323
     29 H         115.5700  155.7726  145.4653 H       1  UNL111      0.0811
     30 H         115.5180  157.6419  147.0726 H       1  UNL111      0.0406
     31 H         117.0394  157.0399  147.8646 H       1  UNL111      0.0406
     32 H         115.8718  154.9003  148.4728 H       1  UNL111      0.0406
     33 H         114.3539  155.4883  147.6659 H       1  UNL111      0.0406
     34 H         118.7464  151.8226  146.5292 H       1  UNL111      0.0863
     35 H         119.6547  154.0095  144.6130 H       1  UNL111      0.0550
     36 H         118.9705  152.4498  144.2146 H       1  UNL111      0.0550
     37 H         119.2789  153.2316  148.4345 H       1  UNL111      0.0550
     38 H         119.8556  154.5296  147.4120 H       1  UNL111      0.0550
     39 H         120.9490  151.3028  145.2201 H       1  UNL111      0.0741
     40 H         121.4776  152.5505  144.0533 H       1  UNL111      0.0741
     41 H         121.7745  153.3198  148.1983 H       1  UNL111      0.0741
     42 H         121.1256  151.7545  147.6373 H       1  UNL111      0.0741
     43 H         123.5099  152.5679  144.9754 H       1  UNL111      0.0751
     44 H         123.2929  151.6076  146.4574 H       1  UNL111      0.0751
     45 H         123.8929  153.6800  147.8251 H       1  UNL111      0.0589
     46 H         124.0079  154.6214  146.3520 H       1  UNL111      0.0589
     47 H         115.3635  153.5934  144.6866 H       1  UNL111      0.0996
     48 H         117.1077  151.5118  148.0517 H       1  UNL111      0.0996
     49 H         113.4150  152.1295  144.8036 H       1  UNL111      0.0905
     50 H         115.1757  150.0183  148.1165 H       1  UNL111      0.0905
     51 H         125.6016  151.9600  148.4086 H       1  UNL111      0.0893
     52 H         125.9438  154.3473  144.8123 H       1  UNL111      0.0893
     53 H         112.5032  149.9374  145.5411 H       1  UNL111      0.0395
     54 H         112.2162  150.5017  147.2060 H       1  UNL111      0.0395
     55 H         113.2271  149.0688  146.8941 H       1  UNL111      0.0395
     56 H         127.9446  151.2520  148.1387 H       1  UNL111      0.0876
     57 H         128.2836  153.6175  144.5741 H       1  UNL111      0.0876
     58 H         129.2887  152.0720  146.2275 H       1  UNL111      0.0874
@<TRIPOS>UNITY_ATOM_ATTR
3 1
charge 1
@<TRIPOS>BOND
     1     1    10    2
     2     2     7    1
     3     2    10   am
     4     2    14    1
     5     3    11    1
     6     3    12    1
     7     3    13    1
     8     4     5    1
     9     4     6    1
    10     4    10    1
    11     5     6    1
    12     7     8    1
    13     7     9    1
    14     8    11    1
    15     9    12    1
    16    13    15    1
    17    14    16   ar
    18    14    17   ar
    19    15    18    1
    20    16    19   ar
    21    17    20   ar
    22    18    22   ar
    23    18    23   ar
    24    19    21   ar
    25    20    21   ar
    26    21    24    1
    27    22    25   ar
    28    23    26   ar
    29    25    27   ar
    30    26    27   ar
    31     3    28    1
    32     4    29    1
    33     5    30    1
    34     5    31    1
    35     6    32    1
    36     6    33    1
    37     7    34    1
    38     8    35    1
    39     8    36    1
    40     9    37    1
    41     9    38    1
    42    11    39    1
    43    11    40    1
    44    12    41    1
    45    12    42    1
    46    13    43    1
    47    13    44    1
    48    15    45    1
    49    15    46    1
    50    16    47    1
    51    17    48    1
    52    19    49    1
    53    20    50    1
    54    22    51    1
    55    23    52    1
    56    24    53    1
    57    24    54    1
    58    24    55    1
    59    25    56    1
    60    26    57    1
    61    27    58    1
@<TRIPOS>MOLECULE
137699946
 57 59 0 0 0
SMALL
GASTEIGER

@<TRIPOS>ATOM
      1 F         115.7372  152.9881  148.3957 F       1  UNL111     -0.2794
      2 O         118.1782  155.3739  146.7900 O.2     1  UNL111     -0.3809
      3 N         121.6343  153.1675  146.0175 N.4     1  UNL111      0.4267
      4 N         117.3770  153.3255  146.1322 N.am    1  UNL111     -0.2750
      5 C         118.7471  152.7952  145.9341 C.3     1  UNL111      0.0202
      6 C         119.4999  153.5427  144.8225 C.3     1  UNL111     -0.0327
      7 C         119.5346  152.7538  147.2549 C.3     1  UNL111     -0.0327
      8 C         120.9320  153.0599  144.6834 C.3     1  UNL111     -0.0370
      9 C         120.9650  152.2927  147.0514 C.3     1  UNL111     -0.0370
     10 C         123.1246  152.8844  145.8798 C.3     1  UNL111     -0.0358
     11 C         117.2031  154.6661  146.5113 C.2     1  UNL111      0.1542
     12 C         123.9189  153.4955  147.0377 C.3     1  UNL111     -0.0312
     13 C         116.3262  152.3597  146.1798 C.3     1  UNL111      0.0566
     14 C         115.8042  155.2889  146.3819 C.3     1  UNL111      0.0359
     15 C         125.3920  153.2329  146.8628 C.3     1  UNL111     -0.0753
     16 C         115.5207  152.2171  147.3191 C.3     1  UNL111      0.1135
     17 C         116.1277  151.4840  145.1054 C.3     1  UNL111     -0.0397
     18 C         115.6995  156.5576  147.2281 C.3     1  UNL111     -0.0428
     19 C         115.5383  155.6072  144.9110 C.3     1  UNL111     -0.0428
     20 C         114.5210  151.2512  147.3822 C.3     1  UNL111     -0.0163
     21 C         115.1216  150.5144  145.1630 C.3     1  UNL111     -0.0738
     22 C         125.9813  152.0928  147.4273 C.3     1  UNL111     -0.0811
     23 C         126.1847  154.1048  146.1031 C.3     1  UNL111     -0.0811
     24 C         114.3182  150.3997  146.2984 C.3     1  UNL111     -0.0688
     25 C         127.3388  151.8323  147.2358 C.3     1  UNL111     -0.0857
     26 C         127.5415  153.8395  145.9131 C.3     1  UNL111     -0.0857
     27 C         128.1174  152.7038  146.4780 C.3     1  UNL111     -0.0868
     28 H         121.5391  154.1491  146.3257 H       1  UNL111      0.1323
     29 H         118.6685  151.7523  145.5976 H       1  UNL111      0.0866
     30 H         119.5204  154.6222  145.0020 H       1  UNL111      0.0551
     31 H         118.9738  153.4074  143.8695 H       1  UNL111      0.0551
     32 H         119.0322  152.0803  147.9603 H       1  UNL111      0.0551
     33 H         119.5581  153.7333  147.7428 H       1  UNL111      0.0551
     34 H         120.9873  152.0145  144.3599 H       1  UNL111      0.0741
     35 H         121.4731  153.6904  143.9700 H       1  UNL111      0.0741
     36 H         121.5232  152.3810  147.9870 H       1  UNL111      0.0741
     37 H         121.0161  151.2572  146.6968 H       1  UNL111      0.0741
     38 H         123.4494  153.3310  144.9327 H       1  UNL111      0.0751
     39 H         123.2485  151.7974  145.8106 H       1  UNL111      0.0751
     40 H         123.5952  153.0891  148.0022 H       1  UNL111      0.0589
     41 H         123.7434  154.5774  147.0907 H       1  UNL111      0.0589
     42 H         115.0286  154.6082  146.7311 H       1  UNL111      0.0783
     43 H         116.7207  151.5678  144.1988 H       1  UNL111      0.1024
     44 H         116.4037  157.3273  146.8937 H       1  UNL111      0.0331
     45 H         115.9184  156.3397  148.2791 H       1  UNL111      0.0331
     46 H         114.6897  156.9781  147.1730 H       1  UNL111      0.0331
     47 H         116.2923  156.2950  144.5119 H       1  UNL111      0.0331
     48 H         114.5538  156.0694  144.7835 H       1  UNL111      0.0331
     49 H         115.5656  154.7008  144.2975 H       1  UNL111      0.0331
     50 H         113.9115  151.1638  148.2770 H       1  UNL111      0.1105
     51 H         114.9556  149.8500  144.3169 H       1  UNL111      0.0896
     52 H         125.3989  151.3998  148.0305 H       1  UNL111      0.0893
     53 H         125.7631  155.0038  145.6584 H       1  UNL111      0.0893
     54 H         113.5350  149.6451  146.3384 H       1  UNL111      0.0906
     55 H         127.7950  150.9518  147.6832 H       1  UNL111      0.0876
     56 H         128.1556  154.5221  145.3296 H       1  UNL111      0.0876
     57 H         129.1767  152.5022  146.3344 H       1  UNL111      0.0874
@<TRIPOS>UNITY_ATOM_ATTR
3 1
charge 1
@<TRIPOS>BOND
     1     1    16    1
     2     2    11    2
     3     3     8    1
     4     3     9    1
     5     3    10    1
     6     4     5    1
     7     4    11   am
     8     4    13    1
     9     5     6    1
    10     5     7    1
    11     6     8    1
    12     7     9    1
    13    10    12    1
    14    11    14    1
    15    12    15    1
    16    13    16   ar
    17    13    17   ar
    18    14    18    1
    19    14    19    1
    20    15    22   ar
    21    15    23   ar
    22    16    20   ar
    23    17    21   ar
    24    20    24   ar
    25    21    24   ar
    26    22    25   ar
    27    23    26   ar
    28    25    27   ar
    29    26    27   ar
    30     3    28    1
    31     5    29    1
    32     6    30    1
    33     6    31    1
    34     7    32    1
    35     7    33    1
    36     8    34    1
    37     8    35    1
    38     9    36    1
    39     9    37    1
    40    10    38    1
    41    10    39    1
    42    12    40    1
    43    12    41    1
    44    14    42    1
    45    17    43    1
    46    18    44    1
    47    18    45    1
    48    18    46    1
    49    19    47    1
    50    19    48    1
    51    19    49    1
    52    20    50    1
    53    21    51    1
    54    22    52    1
    55    23    53    1
    56    24    54    1
    57    25    55    1
    58    26    56    1
    59    27    57    1
@<TRIPOS>MOLECULE
157010673
 53 55 0 0 0
SMALL
GASTEIGER

@<TRIPOS>ATOM
      1 O         118.0210  155.5414  146.3846 O.2     1  UNL111     -0.3449
      2 O         115.1606  155.6787  147.3679 O.2     1  UNL111     -0.3798
      3 N         121.5487  153.1536  146.1054 N.4     1  UNL111      0.4267
      4 N         117.2763  153.3405  146.2827 N.am    1  UNL111     -0.2683
      5 C         118.6539  152.8039  146.1883 C.3     1  UNL111      0.0218
      6 C         119.3762  153.2607  144.9132 C.3     1  UNL111     -0.0325
      7 C         119.4728  153.1187  147.4523 C.3     1  UNL111     -0.0325
      8 C         120.8009  152.7370  144.8582 C.3     1  UNL111     -0.0370
      9 C         120.8941  152.5952  147.3483 C.3     1  UNL111     -0.0370
     10 C         123.0250  152.7864  145.9981 C.3     1  UNL111     -0.0358
     11 C         123.8804  153.5899  146.9816 C.3     1  UNL111     -0.0312
     12 C         116.2058  152.3992  146.3653 C.3     1  UNL111     -0.0008
     13 C         117.0937  154.7339  146.3665 C.2     1  UNL111      0.2533
     14 C         125.3403  153.2734  146.7852 C.3     1  UNL111     -0.0753
     15 C         115.2066  152.5183  147.3378 C.3     1  UNL111     -0.0550
     16 C         116.1550  151.3112  145.4814 C.3     1  UNL111     -0.0550
     17 C         115.6849  155.3009  146.3285 C.2     1  UNL111      0.1995
     18 C         125.9332  152.2042  147.4716 C.3     1  UNL111     -0.0811
     19 C         126.1141  154.0179  145.8838 C.3     1  UNL111     -0.0811
     20 C         114.1680  151.5858  147.4099 C.3     1  UNL111     -0.0786
     21 C         115.1153  150.3803  145.5533 C.3     1  UNL111     -0.0786
     22 C         114.1207  150.5197  146.5165 C.3     1  UNL111     -0.0844
     23 C         115.0643  155.4159  144.9693 C.3     1  UNL111      0.0378
     24 C         127.2755  151.8875  147.2594 C.3     1  UNL111     -0.0857
     25 C         127.4560  153.6973  145.6744 C.3     1  UNL111     -0.0857
     26 C         128.0354  152.6322  146.3604 C.3     1  UNL111     -0.0868
     27 H         121.4991  154.1838  146.1571 H       1  UNL111      0.1323
     28 H         118.5975  151.7081  146.1447 H       1  UNL111      0.0869
     29 H         119.4071  154.3526  144.8388 H       1  UNL111      0.0551
     30 H         118.8250  152.9124  144.0315 H       1  UNL111      0.0551
     31 H         118.9837  152.6727  148.3271 H       1  UNL111      0.0551
     32 H         119.5167  154.1952  147.6466 H       1  UNL111      0.0551
     33 H         120.8358  151.6434  144.7987 H       1  UNL111      0.0741
     34 H         121.3258  153.1653  143.9978 H       1  UNL111      0.0741
     35 H         121.4751  152.9208  148.2149 H       1  UNL111      0.0741
     36 H         120.9251  151.5022  147.2798 H       1  UNL111      0.0741
     37 H         123.3331  153.0110  144.9702 H       1  UNL111      0.0751
     38 H         123.1071  151.7048  146.1567 H       1  UNL111      0.0751
     39 H         123.6058  153.3722  148.0196 H       1  UNL111      0.0589
     40 H         123.7146  154.6655  146.8417 H       1  UNL111      0.0589
     41 H         115.2292  153.3054  148.0887 H       1  UNL111      0.0994
     42 H         116.8923  151.1884  144.6935 H       1  UNL111      0.0994
     43 H         125.3659  151.6109  148.1855 H       1  UNL111      0.0893
     44 H         125.6898  154.8597  145.3407 H       1  UNL111      0.0893
     45 H         113.3979  151.6900  148.1719 H       1  UNL111      0.0890
     46 H         115.0734  149.5501  144.8516 H       1  UNL111      0.0890
     47 H         113.3088  149.7977  146.5734 H       1  UNL111      0.0876
     48 H         114.0420  155.7921  145.0678 H       1  UNL111      0.0661
     49 H         115.0279  154.4379  144.4843 H       1  UNL111      0.0661
     50 H         115.6421  156.1159  144.3607 H       1  UNL111      0.0661
     51 H         127.7351  151.0627  147.7999 H       1  UNL111      0.0876
     52 H         128.0560  154.2817  144.9801 H       1  UNL111      0.0876
     53 H         129.0833  152.3875  146.2002 H       1  UNL111      0.0874
@<TRIPOS>UNITY_ATOM_ATTR
3 1
charge 1
@<TRIPOS>BOND
     1     1    13    2
     2     2    17    2
     3     3     8    1
     4     3     9    1
     5     3    10    1
     6     4     5    1
     7     4    12    1
     8     4    13   am
     9     5     6    1
    10     5     7    1
    11     6     8    1
    12     7     9    1
    13    10    11    1
    14    11    14    1
    15    12    15   ar
    16    12    16   ar
    17    13    17    1
    18    14    18   ar
    19    14    19   ar
    20    15    20   ar
    21    16    21   ar
    22    17    23    1
    23    18    24   ar
    24    19    25   ar
    25    20    22   ar
    26    21    22   ar
    27    24    26   ar
    28    25    26   ar
    29     3    27    1
    30     5    28    1
    31     6    29    1
    32     6    30    1
    33     7    31    1
    34     7    32    1
    35     8    33    1
    36     8    34    1
    37     9    35    1
    38     9    36    1
    39    10    37    1
    40    10    38    1
    41    11    39    1
    42    11    40    1
    43    15    41    1
    44    16    42    1
    45    18    43    1
    46    19    44    1
    47    20    45    1
    48    21    46    1
    49    22    47    1
    50    23    48    1
    51    23    49    1
    52    23    50    1
    53    24    51    1
    54    25    52    1
    55    26    53    1
@<TRIPOS>MOLECULE
15358487
 60 62 0 0 0
SMALL
GASTEIGER

@<TRIPOS>ATOM
      1 O         118.3871  150.4508  146.1145 O.3     1  UNL111     -0.5281
      2 O         118.0990  151.1752  143.9576 O.2     1  UNL111     -0.3344
      3 O         118.1579  155.2099  144.8092 O.2     1  UNL111     -0.3823
      4 N         121.5525  153.2741  146.3184 N.4     1  UNL111      0.4302
      5 N         117.3025  153.7984  146.4011 N.am    1  UNL111     -0.2835
      6 C         118.6514  153.2610  146.7254 C.3     1  UNL111      0.0508
      7 C         119.3032  152.5547  145.5206 C.3     1  UNL111      0.0931
      8 C         119.5632  154.3512  147.3175 C.3     1  UNL111     -0.0263
      9 C         120.7227  152.1042  145.8131 C.3     1  UNL111     -0.0021
     10 C         120.9657  153.8389  147.5907 C.3     1  UNL111     -0.0350
     11 C         123.0167  152.8716  146.4673 C.3     1  UNL111     -0.0346
     12 C         118.5139  151.3407  145.0949 C.2     1  UNL111      0.2299
     13 C         123.9364  154.0946  146.5219 C.3     1  UNL111     -0.0311
     14 C         116.1923  153.1463  147.0132 C.3     1  UNL111     -0.0043
     15 C         117.1745  154.8176  145.4455 C.2     1  UNL111      0.1505
     16 C         115.8106  155.4752  145.2657 C.3     1  UNL111      0.0337
     17 C         125.3778  153.6640  146.6041 C.3     1  UNL111     -0.0753
     18 C         115.1598  152.6093  146.2362 C.3     1  UNL111     -0.0555
     19 C         116.1549  152.9774  148.4035 C.3     1  UNL111     -0.0555
     20 C         115.9211  156.8455  144.6146 C.3     1  UNL111     -0.0446
     21 C         117.6086  149.2942  145.7846 C.3     1  UNL111      0.0459
     22 C         125.9743  153.4161  147.8487 C.3     1  UNL111     -0.0811
     23 C         126.1292  153.4688  145.4369 C.3     1  UNL111     -0.0811
     24 C         114.0955  151.9372  146.8416 C.3     1  UNL111     -0.0787
     25 C         115.0876  152.3095  149.0075 C.3     1  UNL111     -0.0787
     26 C         114.0578  151.7912  148.2262 C.3     1  UNL111     -0.0844
     27 C         127.2985  152.9822  147.9224 C.3     1  UNL111     -0.0857
     28 C         127.4532  153.0345  145.5154 C.3     1  UNL111     -0.0857
     29 C         128.0365  152.7902  146.7567 C.3     1  UNL111     -0.0868
     30 H         121.5158  154.0096  145.5930 H       1  UNL111      0.1339
     31 H         118.5371  152.5088  147.5175 H       1  UNL111      0.0959
     32 H         119.3434  153.2216  144.6531 H       1  UNL111      0.1152
     33 H         119.1254  154.7263  148.2507 H       1  UNL111      0.0561
     34 H         119.6398  155.2182  146.6535 H       1  UNL111      0.0561
     35 H         120.7775  151.3200  146.5775 H       1  UNL111      0.0838
     36 H         121.2036  151.7353  144.8995 H       1  UNL111      0.0838
     37 H         121.6028  154.6615  147.9250 H       1  UNL111      0.0743
     38 H         120.9732  153.0440  148.3447 H       1  UNL111      0.0743
     39 H         123.2670  152.2586  145.5935 H       1  UNL111      0.0752
     40 H         123.0950  152.2468  147.3646 H       1  UNL111      0.0752
     41 H         123.7073  154.7292  147.3850 H       1  UNL111      0.0589
     42 H         123.7883  154.7228  145.6346 H       1  UNL111      0.0589
     43 H         115.3219  155.5890  146.2385 H       1  UNL111      0.0734
     44 H         115.1926  154.8405  144.6249 H       1  UNL111      0.0734
     45 H         115.1837  152.6640  145.1505 H       1  UNL111      0.0993
     46 H         116.9288  153.3961  149.0402 H       1  UNL111      0.0993
     47 H         116.5566  157.5115  145.2074 H       1  UNL111      0.0319
     48 H         114.9316  157.3044  144.5244 H       1  UNL111      0.0319
     49 H         116.3539  156.7722  143.6113 H       1  UNL111      0.0319
     50 H         117.5501  148.6620  146.6745 H       1  UNL111      0.1102
     51 H         118.0923  148.7257  144.9842 H       1  UNL111      0.1102
     52 H         116.5938  149.5859  145.4970 H       1  UNL111      0.1102
     53 H         125.4245  153.5658  148.7753 H       1  UNL111      0.0893
     54 H         125.7018  153.6593  144.4547 H       1  UNL111      0.0893
     55 H         113.2966  151.5214  146.2310 H       1  UNL111      0.0890
     56 H         115.0517  152.2010  150.0893 H       1  UNL111      0.0890
     57 H         113.2243  151.2734  148.6963 H       1  UNL111      0.0876
     58 H         127.7613  152.7989  148.8897 H       1  UNL111      0.0876
     59 H         128.0362  152.8916  144.6081 H       1  UNL111      0.0876
     60 H         129.0705  152.4574  146.8158 H       1  UNL111      0.0874
@<TRIPOS>UNITY_ATOM_ATTR
4 1
charge 1
@<TRIPOS>BOND
     1     1    12    1
     2     1    21    1
     3     2    12    2
     4     3    15    2
     5     4     9    1
     6     4    10    1
     7     4    11    1
     8     5     6    1
     9     5    14    1
    10     5    15   am
    11     6     7    1
    12     6     8    1
    13     7     9    1
    14     7    12    1
    15     8    10    1
    16    11    13    1
    17    13    17    1
    18    14    18   ar
    19    14    19   ar
    20    15    16    1
    21    16    20    1
    22    17    22   ar
    23    17    23   ar
    24    18    24   ar
    25    19    25   ar
    26    22    27   ar
    27    23    28   ar
    28    24    26   ar
    29    25    26   ar
    30    27    29   ar
    31    28    29   ar
    32     4    30    1
    33     6    31    1
    34     7    32    1
    35     8    33    1
    36     8    34    1
    37     9    35    1
    38     9    36    1
    39    10    37    1
    40    10    38    1
    41    11    39    1
    42    11    40    1
    43    13    41    1
    44    13    42    1
    45    16    43    1
    46    16    44    1
    47    18    45    1
    48    19    46    1
    49    20    47    1
    50    20    48    1
    51    20    49    1
    52    21    50    1
    53    21    51    1
    54    21    52    1
    55    22    53    1
    56    23    54    1
    57    24    55    1
    58    25    56    1
    59    26    57    1
    60    27    58    1
    61    28    59    1
    62    29    60    1
@<TRIPOS>MOLECULE
27282486
 54 56 0 0 0
SMALL
GASTEIGER

@<TRIPOS>ATOM
      1 O         118.2736  155.0787  146.6318 O.co2   1  UNL1111    -0.7569
      2 O         122.4800  155.8082  146.3673 O.2     1  UNL1111    -0.3824
      3 N         118.4012  153.7182  146.6713 N.3     1  UNL1111     0.4015
      4 N         122.7712  153.5167  146.3262 N.am    1  UNL1111    -0.2907
      5 C         121.3211  153.2315  146.4587 C.3     1  UNL1111     0.0172
      6 C         119.0517  153.2172  145.3927 C.3     1  UNL1111    -0.0555
      7 C         119.2551  153.3196  147.8674 C.3     1  UNL1111    -0.0555
      8 C         120.5002  153.6741  145.2441 C.3     1  UNL1111    -0.0357
      9 C         120.7015  153.7860  147.7474 C.3     1  UNL1111    -0.0357
     10 C         117.0166  153.0995  146.8477 C.3     1  UNL1111    -0.0543
     11 C         115.9999  153.4947  145.7763 C.3     1  UNL1111    -0.0340
     12 C         123.6519  152.3972  146.4161 C.3     1  UNL1111    -0.0054
     13 C         123.2204  154.8382  146.2008 C.2     1  UNL1111     0.1497
     14 C         114.6404  152.9138  146.0849 C.3     1  UNL1111    -0.0754
     15 C         124.6719  155.0546  145.7769 C.3     1  UNL1111     0.0336
     16 C         124.7131  152.3945  147.3292 C.3     1  UNL1111    -0.0556
     17 C         123.4383  151.2616  145.6238 C.3     1  UNL1111    -0.0556
     18 C         114.2655  151.6613  145.5808 C.3     1  UNL1111    -0.0812
     19 C         113.7484  153.6115  146.9103 C.3     1  UNL1111    -0.0812
     20 C         124.8778  156.4152  145.1271 C.3     1  UNL1111    -0.0446
     21 C         125.5597  151.2879  147.4305 C.3     1  UNL1111    -0.0787
     22 C         124.2873  150.1567  145.7228 C.3     1  UNL1111    -0.0787
     23 C         113.0166  151.1210  145.8920 C.3     1  UNL1111    -0.0857
     24 C         112.5007  153.0692  147.2200 C.3     1  UNL1111    -0.0857
     25 C         125.3488  150.1713  146.6248 C.3     1  UNL1111    -0.0844
     26 C         112.1351  151.8245  146.7110 C.3     1  UNL1111    -0.0868
     27 H         121.2105  152.1406  146.5297 H       1  UNL1111     0.0863
     28 H         118.4556  153.6052  144.5614 H       1  UNL1111     0.0708
     29 H         118.9811  152.1238  145.4154 H       1  UNL1111     0.0708
     30 H         119.1995  152.2271  147.9387 H       1  UNL1111     0.0708
     31 H         118.7783  153.7632  148.7488 H       1  UNL1111     0.0708
     32 H         120.9233  153.2474  144.3272 H       1  UNL1111     0.0548
     33 H         120.5304  154.7630  145.1272 H       1  UNL1111     0.0548
     34 H         120.7317  154.8799  147.7666 H       1  UNL1111     0.0548
     35 H         121.2707  153.4385  148.6176 H       1  UNL1111     0.0548
     36 H         116.6764  153.4309  147.8371 H       1  UNL1111     0.0718
     37 H         117.1635  152.0131  146.8777 H       1  UNL1111     0.0718
     38 H         116.3173  153.1456  144.7873 H       1  UNL1111     0.0587
     39 H         115.9192  154.5853  145.6945 H       1  UNL1111     0.0587
     40 H         124.9732  154.2825  145.0619 H       1  UNL1111     0.0734
     41 H         125.3121  154.9958  146.6615 H       1  UNL1111     0.0734
     42 H         124.8702  153.2335  148.0020 H       1  UNL1111     0.0993
     43 H         122.6335  151.2373  144.8942 H       1  UNL1111     0.0993
     44 H         114.9395  151.1004  144.9379 H       1  UNL1111     0.0893
     45 H         114.0219  154.5850  147.3139 H       1  UNL1111     0.0893
     46 H         124.2291  156.5340  144.2529 H       1  UNL1111     0.0319
     47 H         125.9168  156.5280  144.8022 H       1  UNL1111     0.0319
     48 H         124.6513  157.2263  145.8270 H       1  UNL1111     0.0319
     49 H         126.3782  151.2951  148.1462 H       1  UNL1111     0.0890
     50 H         124.1238  149.2870  145.0914 H       1  UNL1111     0.0890
     51 H         112.7289  150.1518  145.4931 H       1  UNL1111     0.0876
     52 H         111.8136  153.6201  147.8570 H       1  UNL1111     0.0876
     53 H         126.0095  149.3114  146.7029 H       1  UNL1111     0.0876
     54 H         111.1618  151.4046  146.9507 H       1  UNL1111     0.0874
@<TRIPOS>UNITY_ATOM_ATTR
1 1
charge -1
3 1
charge 1
@<TRIPOS>BOND
     1     1     3    1
     2     2    13    2
     3     3     6    1
     4     3     7    1
     5     3    10    1
     6     4     5    1
     7     4    12    1
     8     4    13   am
     9     5     8    1
    10     5     9    1
    11     6     8    1
    12     7     9    1
    13    10    11    1
    14    11    14    1
    15    12    16   ar
    16    12    17   ar
    17    13    15    1
    18    14    18   ar
    19    14    19   ar
    20    15    20    1
    21    16    21   ar
    22    17    22   ar
    23    18    23   ar
    24    19    24   ar
    25    21    25   ar
    26    22    25   ar
    27    23    26   ar
    28    24    26   ar
    29     5    27    1
    30     6    28    1
    31     6    29    1
    32     7    30    1
    33     7    31    1
    34     8    32    1
    35     8    33    1
    36     9    34    1
    37     9    35    1
    38    10    36    1
    39    10    37    1
    40    11    38    1
    41    11    39    1
    42    15    40    1
    43    15    41    1
    44    16    42    1
    45    17    43    1
    46    18    44    1
    47    19    45    1
    48    20    46    1
    49    20    47    1
    50    20    48    1
    51    21    49    1
    52    22    50    1
    53    23    51    1
    54    24    52    1
    55    25    53    1
    56    26    54    1
@<TRIPOS>MOLECULE
10472960
 55 57 0 0 0
SMALL
GASTEIGER

@<TRIPOS>ATOM
      1 O         116.6276  150.5218  146.7001 O.2     1  UNL111     -0.3700
      2 N         121.4644  152.7201  146.1132 N.4     1  UNL111      0.4267
      3 N         117.1645  152.7448  146.4484 N.am    1  UNL111     -0.2837
      4 C         118.6006  152.4185  146.5533 C.3     1  UNL111      0.0192
      5 C         119.2365  152.1183  145.1916 C.3     1  UNL111     -0.0327
      6 C         119.4372  153.4385  147.3382 C.3     1  UNL111     -0.0327
      7 C         120.6802  151.6659  145.3526 C.3     1  UNL111     -0.0370
      8 C         120.8712  152.9599  147.4847 C.3     1  UNL111     -0.0370
      9 C         122.9487  152.3651  146.1648 C.3     1  UNL111     -0.0358
     10 C         123.7968  153.5830  146.5463 C.3     1  UNL111     -0.0312
     11 C         116.7699  154.1076  146.3970 C.3     1  UNL111     -0.0036
     12 C         116.2540  151.6834  146.5310 C.2     1  UNL111      0.1780
     13 C         125.2673  153.2692  146.4691 C.3     1  UNL111     -0.0753
     14 C         116.0848  154.6732  147.4794 C.3     1  UNL111     -0.0553
     15 C         117.0867  154.8995  145.2893 C.3     1  UNL111     -0.0553
     16 C         114.8051  151.9910  146.3484 C.2     1  UNL111      0.0067
     17 C         125.9147  152.6373  147.5405 C.3     1  UNL111     -0.0811
     18 C         126.0041  153.5905  145.3209 C.3     1  UNL111     -0.0811
     19 C         115.7301  156.0225  147.4555 C.3     1  UNL111     -0.0787
     20 C         116.7211  156.2466  145.2646 C.3     1  UNL111     -0.0787
     21 C         116.0488  156.8080  146.3490 C.3     1  UNL111     -0.0844
     22 C         113.8691  151.1071  146.7286 C.2     1  UNL111     -0.0871
     23 C         127.2752  152.3370  147.4643 C.3     1  UNL111     -0.0857
     24 C         127.3648  153.2890  145.2495 C.3     1  UNL111     -0.0857
     25 C         127.9992  152.6625  146.3198 C.3     1  UNL111     -0.0868
     26 C         112.4005  151.3358  146.5778 C.3     1  UNL111     -0.0493
     27 H         121.3923  153.5957  145.5754 H       1  UNL111      0.1323
     28 H         118.6647  151.4875  147.1341 H       1  UNL111      0.0866
     29 H         119.2111  153.0041  144.5484 H       1  UNL111      0.0551
     30 H         118.6683  151.3383  144.6710 H       1  UNL111      0.0551
     31 H         119.0056  153.5892  148.3351 H       1  UNL111      0.0551
     32 H         119.4402  154.4152  146.8404 H       1  UNL111      0.0551
     33 H         120.7603  150.7259  145.9096 H       1  UNL111      0.0741
     34 H         121.1521  151.5511  144.3712 H       1  UNL111      0.0741
     35 H         121.4655  153.7286  147.9841 H       1  UNL111      0.0741
     36 H         120.9406  152.0223  148.0473 H       1  UNL111      0.0741
     37 H         123.2243  152.0173  145.1624 H       1  UNL111      0.0751
     38 H         123.0648  151.5341  146.8698 H       1  UNL111      0.0751
     39 H         123.5690  153.9233  147.5626 H       1  UNL111      0.0589
     40 H         123.5647  154.4277  145.8853 H       1  UNL111      0.0589
     41 H         115.8367  154.0764  148.3545 H       1  UNL111      0.0993
     42 H         117.5702  154.4765  144.4157 H       1  UNL111      0.0993
     43 H         114.5219  152.9271  145.8844 H       1  UNL111      0.1215
     44 H         125.3771  152.3837  148.4516 H       1  UNL111      0.0893
     45 H         125.5375  154.0899  144.4745 H       1  UNL111      0.0893
     46 H         115.2010  156.4619  148.2985 H       1  UNL111      0.0890
     47 H         116.9441  156.8582  144.3930 H       1  UNL111      0.0890
     48 H         115.7606  157.8571  146.3270 H       1  UNL111      0.0876
     49 H         114.1631  150.1598  147.1785 H       1  UNL111      0.0785
     50 H         127.7769  151.8560  148.3012 H       1  UNL111      0.0876
     51 H         127.9366  153.5495  144.3614 H       1  UNL111      0.0876
     52 H         129.0616  152.4350  146.2650 H       1  UNL111      0.0874
     53 H         112.1771  152.3111  146.1335 H       1  UNL111      0.0362
     54 H         111.9144  151.2891  147.5571 H       1  UNL111      0.0362
     55 H         111.9651  150.5612  145.9395 H       1  UNL111      0.0362
@<TRIPOS>UNITY_ATOM_ATTR
2 1
charge 1
@<TRIPOS>BOND
     1     1    12    2
     2     2     7    1
     3     2     8    1
     4     2     9    1
     5     3     4    1
     6     3    11    1
     7     3    12   am
     8     4     5    1
     9     4     6    1
    10     5     7    1
    11     6     8    1
    12     9    10    1
    13    10    13    1
    14    11    14   ar
    15    11    15   ar
    16    12    16    1
    17    13    17   ar
    18    13    18   ar
    19    14    19   ar
    20    15    20   ar
    21    16    22    2
    22    17    23   ar
    23    18    24   ar
    24    19    21   ar
    25    20    21   ar
    26    22    26    1
    27    23    25   ar
    28    24    25   ar
    29     2    27    1
    30     4    28    1
    31     5    29    1
    32     5    30    1
    33     6    31    1
    34     6    32    1
    35     7    33    1
    36     7    34    1
    37     8    35    1
    38     8    36    1
    39     9    37    1
    40     9    38    1
    41    10    39    1
    42    10    40    1
    43    14    41    1
    44    15    42    1
    45    16    43    1
    46    17    44    1
    47    18    45    1
    48    19    46    1
    49    20    47    1
    50    21    48    1
    51    22    49    1
    52    23    50    1
    53    24    51    1
    54    25    52    1
    55    26    53    1
    56    26    54    1
    57    26    55    1
@<TRIPOS>MOLECULE
139597319
 58 61 0 0 0
SMALL
GASTEIGER

@<TRIPOS>ATOM
      1 O         118.2226  155.1142  145.4792 O.2     1  UNL111     -0.3807
      2 N         117.4633  153.0989  146.2790 N.am    1  UNL111     -0.2897
      3 N         121.7209  152.8919  146.0837 N.4     1  UNL111      0.4267
      4 C         115.8593  155.0855  146.1030 C.3     1  UNL111      0.0409
      5 C         118.8423  152.5670  146.3872 C.3     1  UNL111      0.0177
      6 C         115.8388  156.6250  146.3624 C.3     1  UNL111     -0.0355
      7 C         115.1749  154.9593  147.4973 C.3     1  UNL111     -0.0355
      8 C         114.6446  156.3900  147.3017 C.3     1  UNL111     -0.0532
      9 C         119.6827  153.3424  147.4130 C.3     1  UNL111     -0.0330
     10 C         119.5280  152.4795  145.0136 C.3     1  UNL111     -0.0330
     11 C         117.2622  154.4433  145.8916 C.2     1  UNL111      0.1539
     12 C         121.1144  152.8410  147.4661 C.3     1  UNL111     -0.0370
     13 C         120.9621  151.9981  145.1276 C.3     1  UNL111     -0.0370
     14 C         123.2087  152.5636  146.0752 C.3     1  UNL111     -0.0358
     15 C         116.3919  152.1722  146.4425 C.3     1  UNL111     -0.0052
     16 C         124.0434  153.7296  146.6130 C.3     1  UNL111     -0.0312
     17 C         115.3726  152.0835  145.4869 C.3     1  UNL111     -0.0555
     18 C         116.3655  151.3032  147.5414 C.3     1  UNL111     -0.0555
     19 C         125.5125  153.4029  146.5463 C.3     1  UNL111     -0.0753
     20 C         114.3357  151.1596  145.6383 C.3     1  UNL111     -0.0787
     21 C         115.3260  150.3824  147.6938 C.3     1  UNL111     -0.0787
     22 C         114.3112  150.3121  146.7428 C.3     1  UNL111     -0.0844
     23 C         126.1432  152.7498  147.6149 C.3     1  UNL111     -0.0811
     24 C         126.2596  153.7155  145.4020 C.3     1  UNL111     -0.0811
     25 C         127.4965  152.4183  147.5393 C.3     1  UNL111     -0.0857
     26 C         127.6127  153.3816  145.3305 C.3     1  UNL111     -0.0857
     27 C         128.2300  152.7326  146.3976 C.3     1  UNL111     -0.0868
     28 H         121.6217  153.8567  145.7284 H       1  UNL111      0.1323
     29 H         115.1783  154.8450  145.2750 H       1  UNL111      0.0810
     30 H         118.7894  151.5331  146.7531 H       1  UNL111      0.0863
     31 H         115.6330  157.2493  145.4888 H       1  UNL111      0.0397
     32 H         116.7286  157.0120  146.8732 H       1  UNL111      0.0397
     33 H         115.8747  154.8583  148.3354 H       1  UNL111      0.0397
     34 H         114.4006  154.1931  147.5873 H       1  UNL111      0.0397
     35 H         113.6719  156.4351  146.7987 H       1  UNL111      0.0337
     36 H         114.6127  157.0134  148.1984 H       1  UNL111      0.0337
     37 H         119.2260  153.2498  148.4060 H       1  UNL111      0.0550
     38 H         119.7043  154.4142  147.1911 H       1  UNL111      0.0550
     39 H         119.5313  153.4454  144.4993 H       1  UNL111      0.0550
     40 H         118.9649  151.7966  144.3654 H       1  UNL111      0.0550
     41 H         121.7083  153.4806  148.1240 H       1  UNL111      0.0741
     42 H         121.1738  151.8054  147.8193 H       1  UNL111      0.0741
     43 H         121.0265  150.9723  145.5072 H       1  UNL111      0.0741
     44 H         121.4574  152.0571  144.1527 H       1  UNL111      0.0741
     45 H         123.4851  152.3607  145.0338 H       1  UNL111      0.0751
     46 H         123.3459  151.6442  146.6563 H       1  UNL111      0.0751
     47 H         123.7795  153.9653  147.6498 H       1  UNL111      0.0589
     48 H         123.8420  154.6400  146.0345 H       1  UNL111      0.0589
     49 H         115.3842  152.6994  144.5915 H       1  UNL111      0.0993
     50 H         117.1215  151.3577  148.3192 H       1  UNL111      0.0993
     51 H         113.5484  151.0969  144.8901 H       1  UNL111      0.0890
     52 H         115.2997  149.7255  148.5604 H       1  UNL111      0.0890
     53 H         113.5001  149.5969  146.8622 H       1  UNL111      0.0876
     54 H         125.5969  152.5004  148.5219 H       1  UNL111      0.0893
     55 H         125.8054  154.2296  144.5576 H       1  UNL111      0.0893
     56 H         127.9851  151.9197  148.3737 H       1  UNL111      0.0876
     57 H         128.1918  153.6330  144.4445 H       1  UNL111      0.0876
     58 H         129.2863  152.4788  146.3424 H       1  UNL111      0.0874
@<TRIPOS>UNITY_ATOM_ATTR
3 1
charge 1
@<TRIPOS>BOND
     1     1    11    2
     2     2     5    1
     3     2    11   am
     4     2    15    1
     5     3    12    1
     6     3    13    1
     7     3    14    1
     8     4     6    1
     9     4     7    1
    10     4    11    1
    11     5     9    1
    12     5    10    1
    13     6     8    1
    14     7     8    1
    15     9    12    1
    16    10    13    1
    17    14    16    1
    18    15    17   ar
    19    15    18   ar
    20    16    19    1
    21    17    20   ar
    22    18    21   ar
    23    19    23   ar
    24    19    24   ar
    25    20    22   ar
    26    21    22   ar
    27    23    25   ar
    28    24    26   ar
    29    25    27   ar
    30    26    27   ar
    31     3    28    1
    32     4    29    1
    33     5    30    1
    34     6    31    1
    35     6    32    1
    36     7    33    1
    37     7    34    1
    38     8    35    1
    39     8    36    1
    40     9    37    1
    41     9    38    1
    42    10    39    1
    43    10    40    1
    44    12    41    1
    45    12    42    1
    46    13    43    1
    47    13    44    1
    48    14    45    1
    49    14    46    1
    50    16    47    1
    51    16    48    1
    52    17    49    1
    53    18    50    1
    54    20    51    1
    55    21    52    1
    56    22    53    1
    57    23    54    1
    58    24    55    1
    59    25    56    1
    60    26    57    1
    61    27    58    1
@<TRIPOS>MOLECULE
154113448
 39 40 0 0 0
SMALL
GASTEIGER

@<TRIPOS>ATOM
      1 O         118.7177  150.9843  146.8142 O.2     1  UNL111     -0.3682
      2 O         120.8529  149.3966  146.9051 O.3     1  UNL111     -0.4248
      3 N         119.8348  152.9486  146.3874 N.am    1  UNL111     -0.2824
      4 N         115.6965  153.8654  146.4456 N.4     1  UNL111      0.4316
      5 C         118.5700  153.7189  146.3052 C.3     1  UNL111      0.0190
      6 C         117.6790  153.2537  145.1379 C.3     1  UNL111     -0.0328
      7 C         117.8231  153.7273  147.6540 C.3     1  UNL111     -0.0328
      8 C         116.3525  153.9905  145.1132 C.3     1  UNL111     -0.0336
      9 C         116.4954  154.4537  147.5583 C.3     1  UNL111     -0.0336
     10 C         121.0393  153.7078  146.4211 C.3     1  UNL111     -0.0036
     11 C         119.7901  151.5647  146.5885 C.2     1  UNL111      0.1836
     12 C         121.0680  150.7140  146.3933 C.3     1  UNL111      0.0999
     13 C         121.9368  153.5769  147.4870 C.3     1  UNL111     -0.0554
     14 C         121.3084  154.6457  145.4161 C.3     1  UNL111     -0.0554
     15 C         121.4071  150.5973  144.9151 C.3     1  UNL111     -0.0183
     16 C         123.1009  154.3473  147.5294 C.3     1  UNL111     -0.0787
     17 C         122.4741  155.4136  145.4591 C.3     1  UNL111     -0.0787
     18 C         123.3707  155.2620  146.5142 C.3     1  UNL111     -0.0844
     19 H         119.9174  149.1764  146.7300 H       1  UNL111      0.2446
     20 H         115.5111  152.8694  146.6469 H       1  UNL111      0.1345
     21 H         114.7700  154.3141  146.4158 H       1  UNL111      0.1345
     22 H         118.8171  154.7694  146.0988 H       1  UNL111      0.0865
     23 H         117.4721  152.1801  145.1935 H       1  UNL111      0.0550
     24 H         118.2046  153.4106  144.1882 H       1  UNL111      0.0550
     25 H         118.4478  154.2058  148.4182 H       1  UNL111      0.0550
     26 H         117.6336  152.7108  148.0135 H       1  UNL111      0.0550
     27 H         116.4753  155.0585  144.9054 H       1  UNL111      0.0737
     28 H         115.6680  153.5582  144.3773 H       1  UNL111      0.0737
     29 H         115.9065  154.3357  148.4727 H       1  UNL111      0.0737
     30 H         116.6198  155.5207  147.3462 H       1  UNL111      0.0737
     31 H         121.9161  151.1146  146.9440 H       1  UNL111      0.1346
     32 H         121.7355  152.9009  148.3151 H       1  UNL111      0.0993
     33 H         120.6420  154.7647  144.5666 H       1  UNL111      0.0993
     34 H         120.5671  150.1704  144.3553 H       1  UNL111      0.0448
     35 H         122.2596  149.9254  144.7685 H       1  UNL111      0.0448
     36 H         121.6485  151.5679  144.4730 H       1  UNL111      0.0448
     37 H         123.7971  154.2375  148.3584 H       1  UNL111      0.0890
     38 H         122.6910  156.1250  144.6652 H       1  UNL111      0.0890
     39 H         124.2810  155.8571  146.5465 H       1  UNL111      0.0876
@<TRIPOS>UNITY_ATOM_ATTR
4 1
charge 1
@<TRIPOS>BOND
     1     1    11    2
     2     2    12    1
     3     3     5    1
     4     3    10    1
     5     3    11   am
     6     4     8    1
     7     4     9    1
     8     5     6    1
     9     5     7    1
    10     6     8    1
    11     7     9    1
    12    10    13   ar
    13    10    14   ar
    14    11    12    1
    15    12    15    1
    16    13    16   ar
    17    14    17   ar
    18    16    18   ar
    19    17    18   ar
    20     2    19    1
    21     4    20    1
    22     4    21    1
    23     5    22    1
    24     6    23    1
    25     6    24    1
    26     7    25    1
    27     7    26    1
    28     8    27    1
    29     8    28    1
    30     9    29    1
    31     9    30    1
    32    12    31    1
    33    13    32    1
    34    14    33    1
    35    15    34    1
    36    15    35    1
    37    15    36    1
    38    16    37    1
    39    17    38    1
    40    18    39    1
@<TRIPOS>MOLECULE
165365067
 66 68 0 0 0
SMALL
GASTEIGER

@<TRIPOS>ATOM
      1 S         128.0864  152.4690  146.3143 S.3     1  UNL111     -0.1623
      2 O         116.2879  155.4674  145.5664 O.2     1  UNL111     -0.3824
      3 O         123.1191  151.1207  145.4704 O.2     1  UNL111     -0.5807
      4 O         126.6897  155.2004  146.5889 O.2     1  UNL111     -0.5774
      5 N         119.8086  153.4624  146.7087 N.4     1  UNL111      0.4269
      6 N         115.5457  153.4876  146.4672 N.am    1  UNL111     -0.2907
      7 C         116.9288  153.0373  146.7557 C.3     1  UNL111      0.0176
      8 C         117.6304  153.9372  147.7840 C.3     1  UNL111     -0.0330
      9 C         117.7532  152.8702  145.4680 C.3     1  UNL111     -0.0330
     10 C         119.0660  153.5062  148.0232 C.3     1  UNL111     -0.0370
     11 C         119.1834  152.4594  145.7650 C.3     1  UNL111     -0.0370
     12 C         121.2955  153.2055  146.9230 C.3     1  UNL111     -0.0330
     13 C         122.1202  153.6971  145.7302 C.3     1  UNL111     -0.0146
     14 C         114.5038  152.5342  146.6701 C.3     1  UNL111     -0.0054
     15 C         115.3371  154.7650  145.9251 C.2     1  UNL111      0.1497
     16 C         123.5868  153.3826  145.9102 C.3     1  UNL111     -0.0027
     17 C         113.9092  155.2978  145.8590 C.3     1  UNL111      0.0336
     18 C         113.5917  152.2398  145.6499 C.3     1  UNL111     -0.0556
     19 C         114.4105  151.8369  147.8823 C.3     1  UNL111     -0.0556
     20 C         124.0696  152.0690  145.7576 C.3     1  UNL111      0.0496
     21 C         124.4874  154.4148  146.2081 C.3     1  UNL111     -0.0040
     22 C         113.8732  156.8182  145.8169 C.3     1  UNL111     -0.0446
     23 C         112.5915  151.2842  145.8461 C.3     1  UNL111     -0.0787
     24 C         113.4080  150.8840  148.0785 C.3     1  UNL111     -0.0787
     25 C         125.8478  154.1410  146.3686 C.3     1  UNL111      0.0616
     26 C         125.4368  151.8075  145.9068 C.3     1  UNL111      0.0077
     27 C         112.4982  150.6094  147.0607 C.3     1  UNL111     -0.0844
     28 C         126.3385  152.8393  146.2083 C.3     1  UNL111      0.0398
     29 C         123.5965  149.8541  145.0187 C.3     1  UNL111      0.0298
     30 C         126.7860  155.4902  147.9831 C.3     1  UNL111      0.0306
     31 C         128.0948  151.4627  147.8204 C.3     1  UNL111     -0.0184
     32 H         119.7186  154.3972  146.2797 H       1  UNL111      0.1323
     33 H         116.8810  152.0353  147.2032 H       1  UNL111      0.0863
     34 H         117.0790  153.9126  148.7318 H       1  UNL111      0.0550
     35 H         117.6356  154.9848  147.4659 H       1  UNL111      0.0550
     36 H         117.7770  153.7921  144.8787 H       1  UNL111      0.0550
     37 H         117.2826  152.1147  144.8268 H       1  UNL111      0.0550
     38 H         119.5740  154.2311  148.6679 H       1  UNL111      0.0741
     39 H         119.1286  152.5103  148.4759 H       1  UNL111      0.0741
     40 H         119.2370  151.4738  146.2409 H       1  UNL111      0.0741
     41 H         119.7683  152.4460  144.8418 H       1  UNL111      0.0741
     42 H         121.4111  152.1363  147.1290 H       1  UNL111      0.0754
     43 H         121.5930  153.7602  147.8209 H       1  UNL111      0.0754
     44 H         121.9805  154.7793  145.6117 H       1  UNL111      0.0625
     45 H         121.7822  153.2528  144.7876 H       1  UNL111      0.0625
     46 H         113.3430  154.9618  146.7333 H       1  UNL111      0.0734
     47 H         113.4313  154.9173  144.9522 H       1  UNL111      0.0734
     48 H         113.6647  152.7139  144.6749 H       1  UNL111      0.0993
     49 H         115.0845  152.0520  148.7063 H       1  UNL111      0.0993
     50 H         124.1506  155.4458  146.2922 H       1  UNL111      0.1170
     51 H         114.3706  157.2464  146.6934 H       1  UNL111      0.0319
     52 H         112.8382  157.1738  145.8009 H       1  UNL111      0.0319
     53 H         114.3774  157.2013  144.9234 H       1  UNL111      0.0319
     54 H         111.8877  151.0608  145.0472 H       1  UNL111      0.0890
     55 H         113.3285  150.3613  149.0291 H       1  UNL111      0.0890
     56 H         125.8323  150.8050  145.7736 H       1  UNL111      0.1220
     57 H         111.7157  149.8691  147.2132 H       1  UNL111      0.0876
     58 H         122.7287  149.2651  144.7069 H       1  UNL111      0.1069
     59 H         124.0916  149.3127  145.8311 H       1  UNL111      0.1069
     60 H         124.2555  149.9624  144.1507 H       1  UNL111      0.1069
     61 H         127.5418  156.2705  148.1123 H       1  UNL111      0.1070
     62 H         127.1008  154.6136  148.5592 H       1  UNL111      0.1070
     63 H         125.8342  155.8723  148.3676 H       1  UNL111      0.1070
     64 H         129.1267  151.2054  148.0735 H       1  UNL111      0.0544
     65 H         127.5344  150.5359  147.6716 H       1  UNL111      0.0544
     66 H         127.6604  152.0186  148.6557 H       1  UNL111      0.0544
@<TRIPOS>UNITY_ATOM_ATTR
5 1
charge 1
@<TRIPOS>BOND
     1     1    28    1
     2     1    31    1
     3     2    15    2
     4     3    20    1
     5     3    29    1
     6     4    25    1
     7     4    30    1
     8     5    10    1
     9     5    11    1
    10     5    12    1
    11     6     7    1
    12     6    14    1
    13     6    15   am
    14     7     8    1
    15     7     9    1
    16     8    10    1
    17     9    11    1
    18    12    13    1
    19    13    16    1
    20    14    18   ar
    21    14    19   ar
    22    15    17    1
    23    16    20   ar
    24    16    21   ar
    25    17    22    1
    26    18    23   ar
    27    19    24   ar
    28    20    26   ar
    29    21    25   ar
    30    23    27   ar
    31    24    27   ar
    32    25    28   ar
    33    26    28   ar
    34     5    32    1
    35     7    33    1
    36     8    34    1
    37     8    35    1
    38     9    36    1
    39     9    37    1
    40    10    38    1
    41    10    39    1
    42    11    40    1
    43    11    41    1
    44    12    42    1
    45    12    43    1
    46    13    44    1
    47    13    45    1
    48    17    46    1
    49    17    47    1
    50    18    48    1
    51    19    49    1
    52    21    50    1
    53    22    51    1
    54    22    52    1
    55    22    53    1
    56    23    54    1
    57    24    55    1
    58    26    56    1
    59    27    57    1
    60    29    58    1
    61    29    59    1
    62    29    60    1
    63    30    61    1
    64    30    62    1
    65    30    63    1
    66    31    64    1
    67    31    65    1
    68    31    66    1
@<TRIPOS>MOLECULE
100974914
 57 59 0 0 0
SMALL
GASTEIGER

@<TRIPOS>ATOM
      1 F         113.3280  149.8522  146.5805 F       1  UNL111     -0.2904
      2 O         118.3612  155.5710  146.9094 O.2     1  UNL111     -0.3812
      3 N         121.7270  153.2033  146.0962 N.4     1  UNL111      0.4267
      4 N         117.4768  153.5362  146.3232 N.am    1  UNL111     -0.2895
      5 C         118.8250  152.9528  146.1108 C.3     1  UNL111      0.0177
      6 C         119.5731  153.6341  144.9546 C.3     1  UNL111     -0.0330
      7 C         119.6490  152.9307  147.4093 C.3     1  UNL111     -0.0330
      8 C         120.9782  153.0844  144.7881 C.3     1  UNL111     -0.0370
      9 C         121.0513  152.3978  147.1813 C.3     1  UNL111     -0.0370
     10 C         123.1975  152.8433  145.9223 C.3     1  UNL111     -0.0358
     11 C         117.3589  154.8975  146.6444 C.2     1  UNL111      0.1521
     12 C         124.0564  153.4497  147.0358 C.3     1  UNL111     -0.0312
     13 C         116.3888  152.6176  146.3751 C.3     1  UNL111     -0.0004
     14 C         115.9873  155.5745  146.4924 C.3     1  UNL111      0.0357
     15 C         125.5098  153.1159  146.8222 C.3     1  UNL111     -0.0753
     16 C         116.1816  151.7085  145.3273 C.3     1  UNL111     -0.0401
     17 C         115.5581  152.5608  147.5034 C.3     1  UNL111     -0.0401
     18 C         115.9624  156.9138  147.2308 C.3     1  UNL111     -0.0428
     19 C         115.6937  155.7861  145.0075 C.3     1  UNL111     -0.0428
     20 C         115.1414  150.7788  145.3949 C.3     1  UNL111     -0.0167
     21 C         114.5204  151.6281  147.5704 C.3     1  UNL111     -0.0167
     22 C         126.0645  151.9631  147.3957 C.3     1  UNL111     -0.0811
     23 C         126.3167  153.9335  146.0184 C.3     1  UNL111     -0.0811
     24 C         114.3202  150.7479  146.5149 C.3     1  UNL111      0.0844
     25 C         127.4024  151.6367  147.1699 C.3     1  UNL111     -0.0857
     26 C         127.6537  153.6025  145.7942 C.3     1  UNL111     -0.0857
     27 C         128.1954  152.4548  146.3685 C.3     1  UNL111     -0.0868
     28 H         121.6899  154.1984  146.3710 H       1  UNL111      0.1323
     29 H         118.7050  151.9010  145.8179 H       1  UNL111      0.0863
     30 H         119.6447  154.7165  145.1022 H       1  UNL111      0.0550
     31 H         119.0128  153.4940  144.0221 H       1  UNL111      0.0550
     32 H         119.1401  152.3086  148.1559 H       1  UNL111      0.0550
     33 H         119.7304  153.9269  147.8550 H       1  UNL111      0.0550
     34 H         120.9779  152.0277  144.4983 H       1  UNL111      0.0741
     35 H         121.5233  153.6672  144.0382 H       1  UNL111      0.0741
     36 H         121.6413  152.4948  148.0964 H       1  UNL111      0.0741
     37 H         121.0455  151.3489  146.8645 H       1  UNL111      0.0741
     38 H         123.5127  153.2446  144.9520 H       1  UNL111      0.0751
     39 H         123.2667  151.7499  145.8843 H       1  UNL111      0.0751
     40 H         123.7472  153.0854  148.0215 H       1  UNL111      0.0589
     41 H         123.9308  154.5395  147.0626 H       1  UNL111      0.0589
     42 H         115.1939  154.9637  146.9217 H       1  UNL111      0.0783
     43 H         116.7961  151.7360  144.4317 H       1  UNL111      0.1023
     44 H         115.7211  153.2181  148.3547 H       1  UNL111      0.1023
     45 H         116.6922  157.6182  146.8166 H       1  UNL111      0.0331
     46 H         116.1982  156.7748  148.2915 H       1  UNL111      0.0331
     47 H         114.9718  157.3759  147.1626 H       1  UNL111      0.0331
     48 H         116.4701  156.3973  144.5339 H       1  UNL111      0.0331
     49 H         114.7313  156.2896  144.8680 H       1  UNL111      0.0331
     50 H         115.6540  154.8342  144.4686 H       1  UNL111      0.0331
     51 H         114.9597  150.0832  144.5809 H       1  UNL111      0.1104
     52 H         113.8716  151.5778  148.4401 H       1  UNL111      0.1104
     53 H         125.4708  151.3108  148.0325 H       1  UNL111      0.0893
     54 H         125.9223  154.8404  145.5650 H       1  UNL111      0.0893
     55 H         127.8324  150.7466  147.6241 H       1  UNL111      0.0876
     56 H         128.2794  154.2431  145.1762 H       1  UNL111      0.0876
     57 H         129.2396  152.2019  146.1980 H       1  UNL111      0.0874
@<TRIPOS>UNITY_ATOM_ATTR
3 1
charge 1
@<TRIPOS>BOND
     1     1    24    1
     2     2    11    2
     3     3     8    1
     4     3     9    1
     5     3    10    1
     6     4     5    1
     7     4    11   am
     8     4    13    1
     9     5     6    1
    10     5     7    1
    11     6     8    1
    12     7     9    1
    13    10    12    1
    14    11    14    1
    15    12    15    1
    16    13    16   ar
    17    13    17   ar
    18    14    18    1
    19    14    19    1
    20    15    22   ar
    21    15    23   ar
    22    16    20   ar
    23    17    21   ar
    24    20    24   ar
    25    21    24   ar
    26    22    25   ar
    27    23    26   ar
    28    25    27   ar
    29    26    27   ar
    30     3    28    1
    31     5    29    1
    32     6    30    1
    33     6    31    1
    34     7    32    1
    35     7    33    1
    36     8    34    1
    37     8    35    1
    38     9    36    1
    39     9    37    1
    40    10    38    1
    41    10    39    1
    42    12    40    1
    43    12    41    1
    44    14    42    1
    45    16    43    1
    46    17    44    1
    47    18    45    1
    48    18    46    1
    49    18    47    1
    50    19    48    1
    51    19    49    1
    52    19    50    1
    53    20    51    1
    54    21    52    1
    55    22    53    1
    56    23    54    1
    57    25    55    1
    58    26    56    1
    59    27    57    1
@<TRIPOS>MOLECULE
165365058
 62 65 0 0 0
SMALL
GASTEIGER

@<TRIPOS>ATOM
      1 O         127.2072  153.2526  144.9680 O.2     1  UNL111     -0.5769
      2 O         116.3722  155.5999  146.8289 O.2     1  UNL111     -0.3824
      3 N         120.2137  153.9636  146.5620 N.4     1  UNL111      0.4271
      4 N         115.9972  153.3543  146.5166 N.am    1  UNL111     -0.2907
      5 C         117.4505  153.0651  146.4631 C.3     1  UNL111      0.0176
      6 C         118.1521  153.3765  147.7950 C.3     1  UNL111     -0.0328
      7 C         118.1228  153.7590  145.2647 C.3     1  UNL111     -0.0328
      8 C         119.6518  153.1548  147.7103 C.3     1  UNL111     -0.0365
      9 C         119.6223  153.5229  145.2425 C.3     1  UNL111     -0.0365
     10 C         121.7516  154.0613  146.6000 C.3     1  UNL111     -0.0363
     11 C         122.4182  152.7549  146.1231 C.3     1  UNL111     -0.0271
     12 C         122.1835  155.2883  145.7918 C.3     1  UNL111     -0.0589
     13 C         123.8895  152.6994  146.4545 C.3     1  UNL111     -0.0580
     14 C         115.1146  152.2812  146.1930 C.3     1  UNL111     -0.0054
     15 C         115.5667  154.6645  146.7758 C.2     1  UNL111      0.1497
     16 C         124.8449  153.0148  145.4768 C.3     1  UNL111     -0.0239
     17 C         114.0872  154.8947  147.0671 C.3     1  UNL111      0.0336
     18 C         124.3157  152.3388  147.7527 C.3     1  UNL111     -0.0740
     19 C         126.1787  152.9746  145.8282 C.3     1  UNL111      0.0416
     20 C         126.5939  152.6196  147.0994 C.3     1  UNL111     -0.0153
     21 C         114.1288  152.4346  145.2110 C.3     1  UNL111     -0.0556
     22 C         115.2563  151.0359  146.8201 C.3     1  UNL111     -0.0556
     23 C         125.6756  152.2896  148.0778 C.3     1  UNL111     -0.0635
     24 C         128.0734  152.5867  147.1371 C.3     1  UNL111      0.0108
     25 C         128.3669  153.3311  145.8329 C.3     1  UNL111      0.0425
     26 C         113.8605  156.1623  147.8775 C.3     1  UNL111     -0.0446
     27 C         113.2858  151.3709  144.8795 C.3     1  UNL111     -0.0787
     28 C         114.4104  149.9742  146.4904 C.3     1  UNL111     -0.0787
     29 C         113.4248  150.1429  145.5213 C.3     1  UNL111     -0.0844
     30 H         119.8836  154.9302  146.7186 H       1  UNL111      0.1335
     31 H         117.5847  151.9889  146.2886 H       1  UNL111      0.0863
     32 H         117.7336  152.7441  148.5874 H       1  UNL111      0.0551
     33 H         117.9764  154.4096  148.1118 H       1  UNL111      0.0551
     34 H         117.9464  154.8391  145.2696 H       1  UNL111      0.0551
     35 H         117.6816  153.3870  144.3317 H       1  UNL111      0.0551
     36 H         120.1379  153.4958  148.6300 H       1  UNL111      0.0743
     37 H         119.8960  152.1020  147.5371 H       1  UNL111      0.0743
     38 H         119.8603  152.4635  145.1008 H       1  UNL111      0.0743
     39 H         120.0845  154.1111  144.4456 H       1  UNL111      0.0743
     40 H         122.0002  154.2558  147.6507 H       1  UNL111      0.0798
     41 H         122.2849  152.6280  145.0412 H       1  UNL111      0.0604
     42 H         121.9410  151.8825  146.5849 H       1  UNL111      0.0604
     43 H         122.0541  155.1379  144.7157 H       1  UNL111      0.0404
     44 H         123.2404  155.5140  145.9674 H       1  UNL111      0.0404
     45 H         121.6129  156.1764  146.0839 H       1  UNL111      0.0404
     46 H         124.5696  153.2859  144.4625 H       1  UNL111      0.1127
     47 H         113.6794  154.0477  147.6277 H       1  UNL111      0.0734
     48 H         113.5506  154.9912  146.1193 H       1  UNL111      0.0734
     49 H         123.5923  152.0713  148.5204 H       1  UNL111      0.0903
     50 H         114.0233  153.3645  144.6589 H       1  UNL111      0.0993
     51 H         115.9934  150.8827  147.6029 H       1  UNL111      0.0993
     52 H         126.0007  151.9867  149.0690 H       1  UNL111      0.0931
     53 H         128.4312  151.5532  147.0902 H       1  UNL111      0.0659
     54 H         128.5057  153.0949  148.0027 H       1  UNL111      0.0659
     55 H         128.5695  154.3930  146.0221 H       1  UNL111      0.1159
     56 H         129.2340  152.9090  145.3143 H       1  UNL111      0.1159
     57 H         114.4088  156.1250  148.8247 H       1  UNL111      0.0319
     58 H         112.7963  156.2857  148.1008 H       1  UNL111      0.0319
     59 H         114.1972  157.0481  147.3288 H       1  UNL111      0.0319
     60 H         112.5233  151.4985  144.1140 H       1  UNL111      0.0890
     61 H         114.5119  149.0165  146.9959 H       1  UNL111      0.0890
     62 H         112.7642  149.3173  145.2653 H       1  UNL111      0.0876
@<TRIPOS>UNITY_ATOM_ATTR
3 1
charge 1
@<TRIPOS>BOND
     1     1    19    1
     2     1    25    1
     3     2    15    2
     4     3     8    1
     5     3     9    1
     6     3    10    1
     7     4     5    1
     8     4    14    1
     9     4    15   am
    10     5     6    1
    11     5     7    1
    12     6     8    1
    13     7     9    1
    14    10    11    1
    15    10    12    1
    16    11    13    1
    17    13    16   ar
    18    13    18   ar
    19    14    21   ar
    20    14    22   ar
    21    15    17    1
    22    16    19   ar
    23    17    26    1
    24    18    23   ar
    25    19    20   ar
    26    20    23   ar
    27    20    24    1
    28    21    27   ar
    29    22    28   ar
    30    24    25    1
    31    27    29   ar
    32    28    29   ar
    33     3    30    1
    34     5    31    1
    35     6    32    1
    36     6    33    1
    37     7    34    1
    38     7    35    1
    39     8    36    1
    40     8    37    1
    41     9    38    1
    42     9    39    1
    43    10    40    1
    44    11    41    1
    45    11    42    1
    46    12    43    1
    47    12    44    1
    48    12    45    1
    49    16    46    1
    50    17    47    1
    51    17    48    1
    52    18    49    1
    53    21    50    1
    54    22    51    1
    55    23    52    1
    56    24    53    1
    57    24    54    1
    58    25    55    1
    59    25    56    1
    60    26    57    1
    61    26    58    1
    62    26    59    1
    63    27    60    1
    64    28    61    1
    65    29    62    1
@<TRIPOS>MOLECULE
527011
 54 56 0 0 0
SMALL
GASTEIGER

@<TRIPOS>ATOM
      1 CL        115.2768  148.4463  146.1911 Cl      1  UNL111     -0.1310
      2 O         116.6340  156.3093  146.3932 O.2     1  UNL111     -0.3824
      3 N         121.3447  153.4406  146.8220 N.4     1  UNL111      0.4267
      4 N         117.1127  154.0654  146.4775 N.am    1  UNL111     -0.2905
      5 C         118.5648  154.3175  146.6173 C.3     1  UNL111      0.0176
      6 C         119.3607  153.8276  145.4016 C.3     1  UNL111     -0.0330
      7 C         119.1457  153.7573  147.9238 C.3     1  UNL111     -0.0330
      8 C         120.8455  154.1018  145.5556 C.3     1  UNL111     -0.0370
      9 C         120.6403  154.0167  148.0353 C.3     1  UNL111     -0.0370
     10 C         122.8601  153.5173  146.9841 C.3     1  UNL111     -0.0358
     11 C         123.5841  152.6667  145.9349 C.3     1  UNL111     -0.0312
     12 C         116.6609  152.7256  146.4069 C.3     1  UNL111     -0.0028
     13 C         116.2276  155.1473  146.3677 C.2     1  UNL111      0.1497
     14 C         125.0768  152.7502  146.1093 C.3     1  UNL111     -0.0753
     15 C         114.7445  154.8138  146.2179 C.3     1  UNL111      0.0336
     16 C         116.3040  152.0494  147.5771 C.3     1  UNL111     -0.0472
     17 C         116.5562  152.0880  145.1662 C.3     1  UNL111     -0.0472
     18 C         113.8659  156.0485  146.1190 C.3     1  UNL111     -0.0446
     19 C         125.7940  153.8111  145.5367 C.3     1  UNL111     -0.0811
     20 C         125.7650  151.7854  146.8561 C.3     1  UNL111     -0.0811
     21 C         115.8731  150.7235  147.5084 C.3     1  UNL111     -0.0435
     22 C         116.1275  150.7614  145.1004 C.3     1  UNL111     -0.0435
     23 C         115.7927  150.0835  146.2719 C.3     1  UNL111      0.0183
     24 C         127.1753  153.9019  145.7064 C.3     1  UNL111     -0.0857
     25 C         127.1473  151.8799  147.0227 C.3     1  UNL111     -0.0857
     26 C         127.8511  152.9371  146.4493 C.3     1  UNL111     -0.0868
     27 H         121.1100  152.4380  146.7791 H       1  UNL111      0.1323
     28 H         118.7134  155.4043  146.6612 H       1  UNL111      0.0863
     29 H         118.9916  154.3159  144.4918 H       1  UNL111      0.0550
     30 H         119.2250  152.7493  145.2586 H       1  UNL111      0.0550
     31 H         118.9781  152.6764  147.9909 H       1  UNL111      0.0550
     32 H         118.6322  154.2101  148.7808 H       1  UNL111      0.0550
     33 H         121.3799  153.6678  144.7081 H       1  UNL111      0.0741
     34 H         121.0717  155.1713  145.6227 H       1  UNL111      0.0741
     35 H         120.8745  155.0861  148.0806 H       1  UNL111      0.0741
     36 H         121.0456  153.5165  148.9211 H       1  UNL111      0.0741
     37 H         123.0867  153.1369  147.9876 H       1  UNL111      0.0751
     38 H         123.1406  154.5753  146.9367 H       1  UNL111      0.0751
     39 H         123.3455  152.9930  144.9174 H       1  UNL111      0.0589
     40 H         123.2568  151.6214  146.0012 H       1  UNL111      0.0589
     41 H         114.4240  154.2251  147.0837 H       1  UNL111      0.0734
     42 H         114.6043  154.2136  145.3130 H       1  UNL111      0.0734
     43 H         116.3457  152.5480  148.5424 H       1  UNL111      0.1009
     44 H         116.7954  152.6163  144.2463 H       1  UNL111      0.1009
     45 H         113.9596  156.6718  147.0139 H       1  UNL111      0.0319
     46 H         112.8158  155.7565  146.0146 H       1  UNL111      0.0319
     47 H         114.1385  156.6576  145.2512 H       1  UNL111      0.0319
     48 H         125.2931  154.5713  144.9410 H       1  UNL111      0.0893
     49 H         125.2429  150.9434  147.3054 H       1  UNL111      0.0893
     50 H         115.5924  150.1975  148.4179 H       1  UNL111      0.1005
     51 H         116.0465  150.2650  144.1361 H       1  UNL111      0.1005
     52 H         127.7296  154.7205  145.2524 H       1  UNL111      0.0876
     53 H         127.6820  151.1240  147.5940 H       1  UNL111      0.0876
     54 H         128.9295  153.0045  146.5745 H       1  UNL111      0.0874
@<TRIPOS>UNITY_ATOM_ATTR
3 1
charge 1
@<TRIPOS>BOND
     1     1    23    1
     2     2    13    2
     3     3     8    1
     4     3     9    1
     5     3    10    1
     6     4     5    1
     7     4    12    1
     8     4    13   am
     9     5     6    1
    10     5     7    1
    11     6     8    1
    12     7     9    1
    13    10    11    1
    14    11    14    1
    15    12    16   ar
    16    12    17   ar
    17    13    15    1
    18    14    19   ar
    19    14    20   ar
    20    15    18    1
    21    16    21   ar
    22    17    22   ar
    23    19    24   ar
    24    20    25   ar
    25    21    23   ar
    26    22    23   ar
    27    24    26   ar
    28    25    26   ar
    29     3    27    1
    30     5    28    1
    31     6    29    1
    32     6    30    1
    33     7    31    1
    34     7    32    1
    35     8    33    1
    36     8    34    1
    37     9    35    1
    38     9    36    1
    39    10    37    1
    40    10    38    1
    41    11    39    1
    42    11    40    1
    43    15    41    1
    44    15    42    1
    45    16    43    1
    46    17    44    1
    47    18    45    1
    48    18    46    1
    49    18    47    1
    50    19    48    1
    51    20    49    1
    52    21    50    1
    53    22    51    1
    54    24    52    1
    55    25    53    1
    56    26    54    1
@<TRIPOS>MOLECULE
139032969
 54 56 0 0 0
SMALL
GASTEIGER

@<TRIPOS>ATOM
      1 CL        112.4563  150.0246  145.5909 Cl      1  UNL111     -0.1524
      2 O         118.1542  155.3731  147.4580 O.2     1  UNL111     -0.3724
      3 N         121.4271  152.8489  146.6958 N.4     1  UNL111      0.4267
      4 N         117.2019  153.4720  146.5846 N.am    1  UNL111     -0.2846
      5 C         118.5248  152.8175  146.4299 C.3     1  UNL111      0.0186
      6 C         119.2177  152.6076  147.7868 C.3     1  UNL111     -0.0329
      7 C         119.4235  153.5539  145.4250 C.3     1  UNL111     -0.0329
      8 C         120.5964  151.9947  147.6285 C.3     1  UNL111     -0.0370
      9 C         120.7998  152.9201  145.3242 C.3     1  UNL111     -0.0370
     10 C         122.8741  152.3714  146.6710 C.3     1  UNL111     -0.0358
     11 C         123.8114  153.4341  146.0901 C.3     1  UNL111     -0.0312
     12 C         116.0506  152.6661  146.3407 C.3     1  UNL111     -0.0042
     13 C         117.1413  154.7950  147.0508 C.2     1  UNL111      0.1796
     14 C         125.2476  152.9960  146.2136 C.3     1  UNL111     -0.0753
     15 C         115.8061  155.5284  146.9715 C.3     1  UNL111      0.1096
     16 C         115.0314  152.5626  147.2961 C.3     1  UNL111     -0.0554
     17 C         115.9467  151.9221  145.1568 C.3     1  UNL111     -0.0554
     18 C         115.9903  157.0383  146.9397 C.3     1  UNL111     -0.0204
     19 C         126.0186  153.3915  147.3156 C.3     1  UNL111     -0.0811
     20 C         125.8207  152.1586  145.2458 C.3     1  UNL111     -0.0811
     21 C         113.9184  151.7482  147.0635 C.3     1  UNL111     -0.0787
     22 C         114.8323  151.1107  144.9222 C.3     1  UNL111     -0.0787
     23 C         113.8219  151.0279  145.8764 C.3     1  UNL111     -0.0844
     24 C         127.3386  152.9576  147.4447 C.3     1  UNL111     -0.0857
     25 C         127.1408  151.7267  145.3793 C.3     1  UNL111     -0.0857
     26 C         127.8984  152.1248  146.4784 C.3     1  UNL111     -0.0868
     27 H         121.4329  153.8028  147.0922 H       1  UNL111      0.1323
     28 H         118.3672  151.8093  146.0233 H       1  UNL111      0.0864
     29 H         118.5996  151.9566  148.4173 H       1  UNL111      0.0551
     30 H         119.3229  153.5470  148.3384 H       1  UNL111      0.0551
     31 H         119.5514  154.6072  145.6948 H       1  UNL111      0.0551
     32 H         118.9478  153.5520  144.4367 H       1  UNL111      0.0551
     33 H         121.1082  151.9638  148.5961 H       1  UNL111      0.0741
     34 H         120.5542  150.9843  147.2067 H       1  UNL111      0.0741
     35 H         120.7550  151.9012  144.9237 H       1  UNL111      0.0741
     36 H         121.4421  153.5318  144.6857 H       1  UNL111      0.0741
     37 H         122.9012  151.4344  146.1028 H       1  UNL111      0.0751
     38 H         123.1531  152.1579  147.7096 H       1  UNL111      0.0751
     39 H         123.6709  154.3910  146.6083 H       1  UNL111      0.0589
     40 H         123.5915  153.6242  145.0337 H       1  UNL111      0.0589
     41 H         115.2657  155.2261  146.0690 H       1  UNL111      0.1225
     42 H         115.2092  155.2728  147.8513 H       1  UNL111      0.0993
     43 H         115.1006  153.0762  148.2517 H       1  UNL111      0.0993
     44 H         116.7044  151.9926  144.3813 H       1  UNL111      0.0411
     45 H         116.4732  157.3972  147.8546 H       1  UNL111      0.0411
     46 H         115.0207  157.5378  146.8496 H       1  UNL111      0.0411
     47 H         116.6127  157.3392  146.0905 H       1  UNL111      0.0893
     48 H         125.6097  154.0475  148.0812 H       1  UNL111      0.0893
     49 H         125.2555  151.8400  144.3727 H       1  UNL111      0.0890
     50 H         113.1358  151.6743  147.8154 H       1  UNL111      0.0890
     51 H         114.7530  150.5531  143.9918 H       1  UNL111      0.0876
     52 H         127.9369  153.2733  148.2968 H       1  UNL111      0.0876
     53 H         127.5854  151.0836  144.6228 H       1  UNL111      0.0876
     54 H         128.9294  151.7923  146.5781 H       1  UNL111      0.0874
@<TRIPOS>UNITY_ATOM_ATTR
3 1
charge 1
@<TRIPOS>BOND
     1     1    15    1
     2     2    13    2
     3     3     8    1
     4     3     9    1
     5     3    10    1
     6     4     5    1
     7     4    12    1
     8     4    13   am
     9     5     6    1
    10     5     7    1
    11     6     8    1
    12     7     9    1
    13    10    11    1
    14    11    14    1
    15    12    16   ar
    16    12    17   ar
    17    13    15    1
    18    14    19   ar
    19    14    20   ar
    20    15    18    1
    21    16    21   ar
    22    17    22   ar
    23    19    24   ar
    24    20    25   ar
    25    21    23   ar
    26    22    23   ar
    27    24    26   ar
    28    25    26   ar
    29     3    27    1
    30     5    28    1
    31     6    29    1
    32     6    30    1
    33     7    31    1
    34     7    32    1
    35     8    33    1
    36     8    34    1
    37     9    35    1
    38     9    36    1
    39    10    37    1
    40    10    38    1
    41    11    39    1
    42    11    40    1
    43    15    41    1
    44    16    42    1
    45    17    43    1
    46    18    44    1
    47    18    45    1
    48    18    46    1
    49    19    47    1
    50    20    48    1
    51    21    49    1
    52    22    50    1
    53    23    51    1
    54    24    52    1
    55    25    53    1
    56    26    54    1
@<TRIPOS>MOLECULE
129697494
 59 61 0 0 0
SMALL
GASTEIGER

@<TRIPOS>ATOM
      1 F         130.0995  152.4632  146.5672 F       1  UNL111     -0.2906
      2 O         116.4338  155.4453  145.7836 O.2     1  UNL111     -0.3824
      3 O         124.2318  154.6949  147.0772 O.2     1  UNL111     -0.4085
      4 N         119.7319  152.7486  145.7581 N.4     1  UNL111      0.4263
      5 N         115.5535  153.4234  146.4300 N.am    1  UNL111     -0.2907
      6 C         116.8696  152.7505  146.3202 C.3     1  UNL111      0.0176
      7 C         117.4118  152.7783  144.8822 C.3     1  UNL111     -0.0330
      8 C         117.8906  153.2990  147.3262 C.3     1  UNL111     -0.0330
      9 C         118.7687  152.1062  144.7840 C.3     1  UNL111     -0.0373
     10 C         119.2390  152.6160  147.1823 C.3     1  UNL111     -0.0373
     11 C         121.1427  152.2182  145.5638 C.3     1  UNL111     -0.0395
     12 C         122.1660  153.1806  146.1515 C.3     1  UNL111     -0.0361
     13 C         114.4216  152.5883  146.6696 C.3     1  UNL111     -0.0054
     14 C         115.4656  154.8057  146.2067 C.2     1  UNL111      0.1497
     15 C         123.6016  152.6872  145.9295 C.3     1  UNL111      0.0267
     16 C         114.1650  155.5145  146.5717 C.3     1  UNL111      0.0336
     17 C         113.2967  152.6496  145.8387 C.3     1  UNL111     -0.0556
     18 C         114.4407  151.6537  147.7139 C.3     1  UNL111     -0.0556
     19 C         124.6025  153.6468  146.5524 C.2     1  UNL111      0.1143
     20 C         114.3848  156.9946  146.8469 C.3     1  UNL111     -0.0446
     21 C         112.2034  151.8088  146.0614 C.3     1  UNL111     -0.0787
     22 C         113.3454  150.8160  147.9378 C.3     1  UNL111     -0.0787
     23 C         112.2270  150.8951  147.1121 C.3     1  UNL111     -0.0844
     24 C         126.0566  153.3019  146.5283 C.3     1  UNL111      0.0177
     25 C         126.5407  152.1335  145.9225 C.3     1  UNL111     -0.0421
     26 C         126.9595  154.1849  147.1427 C.3     1  UNL111     -0.0421
     27 C         127.9110  151.8544  145.9388 C.3     1  UNL111     -0.0193
     28 C         128.3271  153.9019  147.1553 C.3     1  UNL111     -0.0193
     29 C         128.7899  152.7387  146.5545 C.3     1  UNL111      0.0831
     30 H         119.7552  153.7573  145.5330 H       1  UNL111      0.1319
     31 H         116.7346  151.6874  146.5613 H       1  UNL111      0.0863
     32 H         117.5072  153.8009  144.5041 H       1  UNL111      0.0550
     33 H         116.7053  152.2726  144.2127 H       1  UNL111      0.0550
     34 H         117.5163  153.1553  148.3471 H       1  UNL111      0.0550
     35 H         118.0354  154.3777  147.2055 H       1  UNL111      0.0550
     36 H         118.7185  151.0380  145.0225 H       1  UNL111      0.0740
     37 H         119.1806  152.2347  143.7775 H       1  UNL111      0.0740
     38 H         119.9665  153.0929  147.8435 H       1  UNL111      0.0740
     39 H         119.1836  151.5470  147.4163 H       1  UNL111      0.0740
     40 H         121.3066  152.1216  144.4849 H       1  UNL111      0.0731
     41 H         121.1898  151.2247  146.0226 H       1  UNL111      0.0731
     42 H         122.0019  153.3075  147.2270 H       1  UNL111      0.0504
     43 H         122.0437  154.1714  145.6953 H       1  UNL111      0.0504
     44 H         123.8042  152.6138  144.8556 H       1  UNL111      0.0705
     45 H         123.7182  151.7022  146.3944 H       1  UNL111      0.0705
     46 H         113.7271  155.0581  147.4649 H       1  UNL111      0.0734
     47 H         113.4639  155.4190  145.7380 H       1  UNL111      0.0734
     48 H         113.2641  153.3191  144.9834 H       1  UNL111      0.0993
     49 H         115.2840  151.5914  148.3954 H       1  UNL111      0.0993
     50 H         115.1092  157.1394  147.6552 H       1  UNL111      0.0319
     51 H         113.4437  157.4708  147.1393 H       1  UNL111      0.0319
     52 H         114.7644  157.5101  145.9586 H       1  UNL111      0.0319
     53 H         111.3336  151.8624  145.4100 H       1  UNL111      0.0890
     54 H         113.3580  150.1078  148.7632 H       1  UNL111      0.0890
     55 H         111.3723  150.2450  147.2872 H       1  UNL111      0.0876
     56 H         125.8836  151.4232  145.4313 H       1  UNL111      0.0980
     57 H         126.6047  155.0990  147.6169 H       1  UNL111      0.0980
     58 H         128.3031  150.9531  145.4759 H       1  UNL111      0.1095
     59 H         129.0307  154.5800  147.6295 H       1  UNL111      0.1095
@<TRIPOS>UNITY_ATOM_ATTR
4 1
charge 1
@<TRIPOS>BOND
     1     1    29    1
     2     2    14    2
     3     3    19    2
     4     4     9    1
     5     4    10    1
     6     4    11    1
     7     5     6    1
     8     5    13    1
     9     5    14   am
    10     6     7    1
    11     6     8    1
    12     7     9    1
    13     8    10    1
    14    11    12    1
    15    12    15    1
    16    13    17   ar
    17    13    18   ar
    18    14    16    1
    19    15    19    1
    20    16    20    1
    21    17    21   ar
    22    18    22   ar
    23    19    24    1
    24    21    23   ar
    25    22    23   ar
    26    24    25   ar
    27    24    26   ar
    28    25    27   ar
    29    26    28   ar
    30    27    29   ar
    31    28    29   ar
    32     4    30    1
    33     6    31    1
    34     7    32    1
    35     7    33    1
    36     8    34    1
    37     8    35    1
    38     9    36    1
    39     9    37    1
    40    10    38    1
    41    10    39    1
    42    11    40    1
    43    11    41    1
    44    12    42    1
    45    12    43    1
    46    15    44    1
    47    15    45    1
    48    16    46    1
    49    16    47    1
    50    17    48    1
    51    18    49    1
    52    20    50    1
    53    20    51    1
    54    20    52    1
    55    21    53    1
    56    22    54    1
    57    23    55    1
    58    25    56    1
    59    26    57    1
    60    27    58    1
    61    28    59    1
@<TRIPOS>MOLECULE
46781607
 30 32 0 0 0
SMALL
GASTEIGER

@<TRIPOS>ATOM
      1 F         112.8315  150.4564  146.3859 F       1  UNL111     -0.2792
      2 O         118.5376  155.6589  146.6988 O.2     1  UNL111     -0.3760
      3 N         121.7748  154.2409  146.4408 N.4     1  UNL111      0.4556
      4 N         117.4278  153.6163  146.6479 N.am    1  UNL111     -0.2561
      5 C         118.6555  152.9436  146.5950 C.3     1  UNL111      0.1091
      6 C         119.5694  153.1601  147.7079 C.3     1  UNL111      0.0831
      7 C         119.4525  153.1631  145.3957 C.3     1  UNL111      0.0831
      8 C         120.9838  153.7797  147.6094 C.3     1  UNL111      0.0648
      9 C         120.8707  153.7824  145.3560 C.3     1  UNL111      0.0648
     10 C         123.1071  153.6856  146.3770 C.3     1  UNL111      0.0661
     11 C         124.5306  153.1239  146.3173 C.3     1  UNL111      0.0776
     12 C         116.2237  152.8313  146.5905 C.2     1  UNL111      0.0457
     13 C         117.4755  155.0314  146.7328 C.2     1  UNL111      0.1769
     14 C         125.8625  152.6188  146.2678 C.2     1  UNL111     -0.0058
     15 C         116.2884  155.8306  146.8830 C.3     1  UNL111      0.1132
     16 C         114.9469  153.3909  146.5662 C.2     1  UNL111      0.0379
     17 C         116.3144  151.4317  146.5393 C.2     1  UNL111      0.0379
     18 C         115.1533  156.7360  147.0515 C.3     1  UNL111     -0.0255
     19 C         126.2913  151.6964  147.2190 C.2     1  UNL111     -0.0052
     20 C         126.7345  153.0592  145.2751 C.2     1  UNL111     -0.0052
     21 C         113.7988  152.6025  146.4986 C.2     1  UNL111      0.0655
     22 C         115.1802  150.6243  146.4719 C.2     1  UNL111      0.0655
     23 C         113.9278  151.2215  146.4521 C.2     1  UNL111      0.1273
     24 C         127.5968  151.2124  147.1761 C.2     1  UNL111     -0.0019
     25 C         128.0397  152.5744  145.2334 C.2     1  UNL111     -0.0019
     26 C         128.4705  151.6516  146.1840 C.2     1  UNL111     -0.0007
     27 H         121.7929  155.2697  146.4421 H       1  UNL111      0.1720
     28 H         114.2039  156.2236  146.8748 H       1  UNL111      0.0371
     29 H         115.2210  157.5730  146.3504 H       1  UNL111      0.0371
     30 H         115.1342  157.1450  148.0659 H       1  UNL111      0.0371
@<TRIPOS>UNITY_ATOM_ATTR
3 1
charge 1
@<TRIPOS>BOND
     1     1    23    1
     2     2    13    2
     3     3     8    1
     4     3     9    1
     5     3    10    1
     6     4     5    1
     7     4    12    1
     8     4    13   am
     9     5     6    1
    10     5     7    1
    11     6     8    1
    12     7     9    1
    13    10    11    1
    14    11    14    1
    15    12    16    2
    16    12    17    1
    17    13    15    1
    18    14    19    2
    19    14    20    1
    20    15    18    1
    21    16    21    1
    22    17    22    2
    23    19    24    1
    24    20    25    2
    25    21    23    2
    26    22    23    1
    27    24    26    2
    28    25    26    1
    29     3    27    1
    30    18    28    1
    31    18    29    1
    32    18    30    1
@<TRIPOS>MOLECULE
156613767
 58 60 0 0 0
SMALL
GASTEIGER

@<TRIPOS>ATOM
      1 O         118.3739  155.4595  145.6915 O.2     1  UNL111     -0.3822
      2 O         113.1767  149.8949  146.4918 O.2     1  UNL111     -0.5646
      3 N         121.7103  153.1388  146.6842 N.4     1  UNL111      0.4267
      4 N         117.4683  153.4641  146.3850 N.am    1  UNL111     -0.2900
      5 C         118.8082  152.8897  146.6578 C.3     1  UNL111      0.0176
      6 C         119.5456  153.6426  147.7759 C.3     1  UNL111     -0.0330
      7 C         119.6465  152.7774  145.3730 C.3     1  UNL111     -0.0330
      8 C         120.9493  153.1063  147.9904 C.3     1  UNL111     -0.0370
      9 C         121.0452  152.2601  145.6510 C.3     1  UNL111     -0.0370
     10 C         123.1798  152.7983  146.8973 C.3     1  UNL111     -0.0358
     11 C         124.0447  153.2909  145.7335 C.3     1  UNL111     -0.0312
     12 C         116.3612  152.5659  146.4297 C.3     1  UNL111      0.0001
     13 C         117.3664  154.8001  145.9677 C.2     1  UNL111      0.1505
     14 C         115.9809  155.4417  145.9302 C.3     1  UNL111      0.0353
     15 C         125.5012  153.0185  146.0056 C.3     1  UNL111     -0.0753
     16 C         116.1637  151.7398  147.5461 C.3     1  UNL111     -0.0397
     17 C         115.4845  152.4573  145.3433 C.3     1  UNL111     -0.0397
     18 C         116.0218  156.9561  146.1464 C.3     1  UNL111     -0.0413
     19 C         126.2912  153.9702  146.6654 C.3     1  UNL111     -0.0811
     20 C         126.0758  151.7948  145.6338 C.3     1  UNL111     -0.0811
     21 C         115.0938  150.8401  147.5872 C.3     1  UNL111     -0.0245
     22 C         114.4201  151.5543  145.3813 C.3     1  UNL111     -0.0245
     23 C         114.2303  150.7568  146.5020 C.3     1  UNL111      0.0350
     24 C         116.3909  157.3294  147.5754 C.3     1  UNL111     -0.0653
     25 C         127.6316  153.7016  146.9459 C.3     1  UNL111     -0.0857
     26 C         127.4167  151.5306  145.9159 C.3     1  UNL111     -0.0857
     27 C         128.1931  152.4826  146.5726 C.3     1  UNL111     -0.0868
     28 H         113.1196  149.4405  147.3487 H       1  UNL111      0.3342
     29 H         121.6729  154.1127  146.3418 H       1  UNL111      0.1323
     30 H         118.6790  151.8592  147.0152 H       1  UNL111      0.0863
     31 H         118.9764  153.5615  148.7100 H       1  UNL111      0.0550
     32 H         119.6190  154.7137  147.5619 H       1  UNL111      0.0550
     33 H         119.7342  153.7406  144.8607 H       1  UNL111      0.0550
     34 H         119.1440  152.1062  144.6655 H       1  UNL111      0.0550
     35 H         121.4875  153.7376  148.7053 H       1  UNL111      0.0741
     36 H         120.9464  152.0712  148.3496 H       1  UNL111      0.0741
     37 H         121.0358  151.2355  146.0391 H       1  UNL111      0.0741
     38 H         121.6431  152.2941  144.7367 H       1  UNL111      0.0741
     39 H         123.2488  151.7140  147.0431 H       1  UNL111      0.0751
     40 H         123.4900  153.2940  147.8247 H       1  UNL111      0.0751
     41 H         123.8949  154.3665  145.5762 H       1  UNL111      0.0589
     42 H         123.7627  152.8049  144.7930 H       1  UNL111      0.0589
     43 H         115.3253  154.9931  146.6832 H       1  UNL111      0.0745
     44 H         115.5567  155.2535  144.9385 H       1  UNL111      0.0745
     45 H         116.8098  151.8129  148.4164 H       1  UNL111      0.1028
     46 H         115.6320  153.0384  144.4371 H       1  UNL111      0.1028
     47 H         115.0311  157.3695  145.9234 H       1  UNL111      0.0369
     48 H         116.7271  157.4276  145.4526 H       1  UNL111      0.0369
     49 H         125.8810  154.9338  146.9604 H       1  UNL111      0.0893
     50 H         125.4954  151.0371  145.1120 H       1  UNL111      0.0893
     51 H         114.9464  150.2225  148.4683 H       1  UNL111      0.1118
     52 H         113.7424  151.4690  144.5352 H       1  UNL111      0.1118
     53 H         115.6823  156.8963  148.2887 H       1  UNL111      0.0262
     54 H         116.3709  158.4170  147.6974 H       1  UNL111      0.0262
     55 H         117.3950  156.9806  147.8348 H       1  UNL111      0.0262
     56 H         128.2443  154.4457  147.4504 H       1  UNL111      0.0876
     57 H         127.8621  150.5839  145.6179 H       1  UNL111      0.0876
     58 H         129.2399  152.2777  146.7863 H       1  UNL111      0.0874
@<TRIPOS>UNITY_ATOM_ATTR
3 1
charge 1
@<TRIPOS>BOND
     1     1    13    2
     2     2    23    1
     3     3     8    1
     4     3     9    1
     5     3    10    1
     6     4     5    1
     7     4    12    1
     8     4    13   am
     9     5     6    1
    10     5     7    1
    11     6     8    1
    12     7     9    1
    13    10    11    1
    14    11    15    1
    15    12    16   ar
    16    12    17   ar
    17    13    14    1
    18    14    18    1
    19    15    19   ar
    20    15    20   ar
    21    16    21   ar
    22    17    22   ar
    23    18    24    1
    24    19    25   ar
    25    20    26   ar
    26    21    23   ar
    27    22    23   ar
    28    25    27   ar
    29    26    27   ar
    30     2    28    1
    31     3    29    1
    32     5    30    1
    33     6    31    1
    34     6    32    1
    35     7    33    1
    36     7    34    1
    37     8    35    1
    38     8    36    1
    39     9    37    1
    40     9    38    1
    41    10    39    1
    42    10    40    1
    43    11    41    1
    44    11    42    1
    45    14    43    1
    46    14    44    1
    47    16    45    1
    48    17    46    1
    49    18    47    1
    50    18    48    1
    51    19    49    1
    52    20    50    1
    53    21    51    1
    54    22    52    1
    55    24    53    1
    56    24    54    1
    57    24    55    1
    58    25    56    1
    59    26    57    1
    60    27    58    1
@<TRIPOS>MOLECULE
165361480
 68 70 0 0 0
SMALL
GASTEIGER

@<TRIPOS>ATOM
      1 O         121.2543  151.6057  147.4580 O.2     1  UNL111     -0.3824
      2 O         115.8826  154.9333  147.3156 O.2     1  UNL111     -0.5805
      3 O         116.7538  150.3828  144.3215 O.2     1  UNL111     -0.5818
      4 N         119.2732  155.0356  145.9074 N.4     1  UNL111      0.4269
      5 N         122.9390  153.0322  146.8163 N.am    1  UNL111     -0.2907
      6 C         121.9741  154.0606  146.3583 C.3     1  UNL111      0.0176
      7 C         121.1022  154.5855  147.5110 C.3     1  UNL111     -0.0330
      8 C         121.1282  153.5788  145.1704 C.3     1  UNL111     -0.0330
      9 C         120.0982  155.6168  147.0292 C.3     1  UNL111     -0.0370
     10 C         120.1276  154.6346  144.7349 C.3     1  UNL111     -0.0370
     11 C         118.1174  155.9556  145.5342 C.3     1  UNL111     -0.0330
     12 C         117.0210  155.2414  144.7234 C.3     1  UNL111     -0.0146
     13 C         124.3146  153.4095  146.8526 C.3     1  UNL111     -0.0054
     14 C         122.4610  151.7981  147.2820 C.2     1  UNL111      0.1497
     15 C         116.5973  153.9069  145.2926 C.3     1  UNL111     -0.0032
     16 C         123.4659  150.6702  147.4952 C.3     1  UNL111      0.0336
     17 C         124.9176  153.9962  145.7318 C.3     1  UNL111     -0.0556
     18 C         125.0709  153.2484  148.0196 C.3     1  UNL111     -0.0556
     19 C         116.0744  153.7826  146.5906 C.3     1  UNL111      0.0474
     20 C         116.7825  152.7470  144.5350 C.3     1  UNL111     -0.0085
     21 C         115.8581  152.5220  147.1826 C.3     1  UNL111     -0.0107
     22 C         116.4873  151.4953  145.0768 C.3     1  UNL111      0.0429
     23 C         122.8079  149.3017  147.3990 C.3     1  UNL111     -0.0446
     24 C         116.0421  151.3574  146.4005 C.3     1  UNL111     -0.0118
     25 C         126.2577  154.3889  145.7703 C.3     1  UNL111     -0.0787
     26 C         126.4099  153.6450  148.0581 C.3     1  UNL111     -0.0787
     27 C         127.0033  154.2118  146.9330 C.3     1  UNL111     -0.0844
     28 C         115.4237  152.4116  148.6234 C.3     1  UNL111     -0.0262
     29 C         115.8240  149.9853  146.9878 C.3     1  UNL111     -0.0263
     30 C         114.5018  155.3175  147.2696 C.3     1  UNL111      0.0300
     31 C         115.7103  150.1602  143.3702 C.3     1  UNL111      0.0297
     32 H         118.8409  154.1758  146.2892 H       1  UNL111      0.1323
     33 H         122.5415  154.9309  146.0019 H       1  UNL111      0.0863
     34 H         121.7414  155.0315  148.2828 H       1  UNL111      0.0550
     35 H         120.5532  153.7770  148.0037 H       1  UNL111      0.0550
     36 H         120.5800  152.6621  145.4124 H       1  UNL111      0.0550
     37 H         121.7840  153.3276  144.3281 H       1  UNL111      0.0550
     38 H         119.4151  155.8859  147.8417 H       1  UNL111      0.0741
     39 H         120.5856  156.5215  146.6492 H       1  UNL111      0.0741
     40 H         120.6221  155.5374  144.3594 H       1  UNL111      0.0741
     41 H         119.4756  154.2329  143.9550 H       1  UNL111      0.0741
     42 H         118.5364  156.7984  144.9728 H       1  UNL111      0.0754
     43 H         117.7085  156.3475  146.4704 H       1  UNL111      0.0754
     44 H         117.3690  155.1130  143.6910 H       1  UNL111      0.0625
     45 H         116.1417  155.8932  144.6526 H       1  UNL111      0.0625
     46 H         123.9067  150.7723  148.4906 H       1  UNL111      0.0734
     47 H         124.2585  150.7264  146.7425 H       1  UNL111      0.0734
     48 H         124.3719  154.1166  144.8006 H       1  UNL111      0.0993
     49 H         124.6259  152.8515  148.9281 H       1  UNL111      0.0993
     50 H         117.1763  152.7962  143.5224 H       1  UNL111      0.1161
     51 H         122.0474  149.1727  148.1763 H       1  UNL111      0.0319
     52 H         123.5549  148.5112  147.5208 H       1  UNL111      0.0319
     53 H         122.3212  149.1685  146.4271 H       1  UNL111      0.0319
     54 H         126.7255  154.8241  144.8902 H       1  UNL111      0.0890
     55 H         126.9894  153.5173  148.9700 H       1  UNL111      0.0890
     56 H         128.0476  154.5152  146.9633 H       1  UNL111      0.0876
     57 H         115.6307  153.3270  149.1865 H       1  UNL111      0.0432
     58 H         115.9705  151.6135  149.1360 H       1  UNL111      0.0432
     59 H         114.3500  152.2066  148.6763 H       1  UNL111      0.0432
     60 H         114.9068  149.9593  147.5849 H       1  UNL111      0.0432
     61 H         116.6755  149.7107  147.6183 H       1  UNL111      0.0432
     62 H         115.7073  149.2171  146.2175 H       1  UNL111      0.0432
     63 H         114.4075  156.2756  147.7893 H       1  UNL111      0.1070
     64 H         113.8645  154.5901  147.7817 H       1  UNL111      0.1070
     65 H         114.1634  155.4570  146.2369 H       1  UNL111      0.1070
     66 H         115.8794  149.1815  142.9115 H       1  UNL111      0.1069
     67 H         115.7379  150.9156  142.5780 H       1  UNL111      0.1069
     68 H         114.7250  150.1457  143.8497 H       1  UNL111      0.1069
@<TRIPOS>UNITY_ATOM_ATTR
4 1
charge 1
@<TRIPOS>BOND
     1     1    14    2
     2     2    19    1
     3     2    30    1
     4     3    22    1
     5     3    31    1
     6     4     9    1
     7     4    10    1
     8     4    11    1
     9     5     6    1
    10     5    13    1
    11     5    14   am
    12     6     7    1
    13     6     8    1
    14     7     9    1
    15     8    10    1
    16    11    12    1
    17    12    15    1
    18    13    17   ar
    19    13    18   ar
    20    14    16    1
    21    15    19   ar
    22    15    20   ar
    23    16    23    1
    24    17    25   ar
    25    18    26   ar
    26    19    21   ar
    27    20    22   ar
    28    21    24   ar
    29    21    28    1
    30    22    24   ar
    31    24    29    1
    32    25    27   ar
    33    26    27   ar
    34     4    32    1
    35     6    33    1
    36     7    34    1
    37     7    35    1
    38     8    36    1
    39     8    37    1
    40     9    38    1
    41     9    39    1
    42    10    40    1
    43    10    41    1
    44    11    42    1
    45    11    43    1
    46    12    44    1
    47    12    45    1
    48    16    46    1
    49    16    47    1
    50    17    48    1
    51    18    49    1
    52    20    50    1
    53    23    51    1
    54    23    52    1
    55    23    53    1
    56    25    54    1
    57    26    55    1
    58    27    56    1
    59    28    57    1
    60    28    58    1
    61    28    59    1
    62    29    60    1
    63    29    61    1
    64    29    62    1
    65    30    63    1
    66    30    64    1
    67    30    65    1
    68    31    66    1
    69    31    67    1
    70    31    68    1
@<TRIPOS>MOLECULE
165361511
 56 59 0 0 0
SMALL
GASTEIGER

@<TRIPOS>ATOM
      1 O         118.8686  156.0886  146.3714 O.2     1  UNL111     -0.3824
      2 O         114.7540  150.3790  147.5726 O.2     1  UNL111     -0.5040
      3 N         122.0030  153.2980  146.7174 N.4     1  UNL111      0.4267
      4 N         117.8049  154.0523  146.4398 N.am    1  UNL111     -0.2875
      5 N         113.3260  150.7751  145.8579 N.pl3   1  UNL111     -0.2206
      6 C         119.0935  153.3245  146.5551 C.3     1  UNL111      0.0179
      7 C         119.8340  153.6553  147.8596 C.3     1  UNL111     -0.0330
      8 C         119.9788  153.5327  145.3147 C.3     1  UNL111     -0.0330
      9 C         121.1790  152.9554  147.9383 C.3     1  UNL111     -0.0370
     10 C         121.3185  152.8332  145.4531 C.3     1  UNL111     -0.0370
     11 C         123.4247  152.7648  146.8506 C.3     1  UNL111     -0.0358
     12 C         124.3904  153.5031  145.9191 C.3     1  UNL111     -0.0312
     13 C         116.6301  153.2610  146.2546 C.3     1  UNL111      0.0151
     14 C         117.8090  155.4565  146.4263 C.2     1  UNL111      0.1499
     15 C         116.4746  156.1839  146.5576 C.3     1  UNL111      0.0336
     16 C         125.7962  152.9954  146.1083 C.3     1  UNL111     -0.0753
     17 C         116.3736  152.1879  147.1256 C.3     1  UNL111      0.0162
     18 C         115.7631  153.5207  145.1770 C.3     1  UNL111     -0.0390
     19 C         115.2236  151.4494  146.8679 C.3     1  UNL111      0.1088
     20 C         114.6122  152.7455  144.9493 C.3     1  UNL111     -0.0208
     21 C         116.6492  157.5932  147.1038 C.3     1  UNL111     -0.0446
     22 C         114.3455  151.6885  145.8249 C.3     1  UNL111      0.0826
     23 C         126.6372  153.5718  147.0706 C.3     1  UNL111     -0.0811
     24 C         126.2684  151.9153  145.3491 C.3     1  UNL111     -0.0811
     25 C         127.9267  153.0760  147.2675 C.3     1  UNL111     -0.0857
     26 C         127.5588  151.4234  145.5489 C.3     1  UNL111     -0.0857
     27 C         128.3864  152.0023  146.5083 C.3     1  UNL111     -0.0868
     28 C         113.6126  150.0356  146.9076 C.3     1  UNL111      0.1028
     29 H         122.0689  154.3282  146.6815 H       1  UNL111      0.1323
     30 H         118.8807  152.2472  146.5840 H       1  UNL111      0.0863
     31 H         119.2180  153.3598  148.7176 H       1  UNL111      0.0550
     32 H         120.0013  154.7320  147.9659 H       1  UNL111      0.0550
     33 H         120.1657  154.5938  145.1227 H       1  UNL111      0.0550
     34 H         119.4596  153.1530  144.4261 H       1  UNL111      0.0550
     35 H         121.7309  153.2996  148.8194 H       1  UNL111      0.0741
     36 H         121.0761  151.8652  147.9762 H       1  UNL111      0.0741
     37 H         121.2092  151.7446  145.5130 H       1  UNL111      0.0741
     38 H         121.9599  153.0854  144.6047 H       1  UNL111      0.0741
     39 H         123.3914  151.6869  146.6542 H       1  UNL111      0.0751
     40 H         123.7265  152.9185  147.8933 H       1  UNL111      0.0751
     41 H         124.3594  154.5821  146.1161 H       1  UNL111      0.0589
     42 H         124.1058  153.3787  144.8686 H       1  UNL111      0.0589
     43 H         115.8113  155.6313  147.2303 H       1  UNL111      0.0734
     44 H         116.0101  156.2526  145.5701 H       1  UNL111      0.0734
     45 H         116.9936  151.9540  147.9805 H       1  UNL111      0.1256
     46 H         115.9854  154.3105  144.4619 H       1  UNL111      0.1022
     47 H         113.9491  152.9485  144.1145 H       1  UNL111      0.1076
     48 H         117.1430  157.5762  148.0810 H       1  UNL111      0.0319
     49 H         115.6757  158.0798  147.2188 H       1  UNL111      0.0319
     50 H         117.2575  158.2059  146.4302 H       1  UNL111      0.0319
     51 H         126.3073  154.4167  147.6714 H       1  UNL111      0.0893
     52 H         125.6469  151.4496  144.5873 H       1  UNL111      0.0893
     53 H         128.5798  153.5305  148.0095 H       1  UNL111      0.0876
     54 H         127.9256  150.5911  144.9519 H       1  UNL111      0.0876
     55 H         129.3942  151.6213  146.6589 H       1  UNL111      0.0874
     56 H         113.0583  149.1946  147.3017 H       1  UNL111      0.2258
@<TRIPOS>UNITY_ATOM_ATTR
3 1
charge 1
@<TRIPOS>BOND
     1     1    14    2
     2     2    19   ar
     3     2    28   ar
     4     3     9    1
     5     3    10    1
     6     3    11    1
     7     4     6    1
     8     4    13    1
     9     4    14   am
    10     5    22   ar
    11     5    28   ar
    12     6     7    1
    13     6     8    1
    14     7     9    1
    15     8    10    1
    16    11    12    1
    17    12    16    1
    18    13    17   ar
    19    13    18   ar
    20    14    15    1
    21    15    21    1
    22    16    23   ar
    23    16    24   ar
    24    17    19   ar
    25    18    20   ar
    26    19    22   ar
    27    20    22   ar
    28    23    25   ar
    29    24    26   ar
    30    25    27   ar
    31    26    27   ar
    32     3    29    1
    33     6    30    1
    34     7    31    1
    35     7    32    1
    36     8    33    1
    37     8    34    1
    38     9    35    1
    39     9    36    1
    40    10    37    1
    41    10    38    1
    42    11    39    1
    43    11    40    1
    44    12    41    1
    45    12    42    1
    46    15    43    1
    47    15    44    1
    48    17    45    1
    49    18    46    1
    50    20    47    1
    51    21    48    1
    52    21    49    1
    53    21    50    1
    54    23    51    1
    55    24    52    1
    56    25    53    1
    57    26    54    1
    58    27    55    1
    59    28    56    1
@<TRIPOS>MOLECULE
527009
 58 60 0 0 0
SMALL
GASTEIGER

@<TRIPOS>ATOM
      1 O         115.5898  150.2866  146.3537 O.2     1  UNL111     -0.3824
      2 O         128.3201  152.7604  146.3365 O.2     1  UNL111     -0.5838
      3 N         120.4468  152.8165  146.0783 N.4     1  UNL111      0.4267
      4 N         116.1684  152.5059  146.2886 N.am    1  UNL111     -0.2907
      5 C         117.6037  152.1784  146.1633 C.3     1  UNL111      0.0176
      6 C         118.3964  152.5258  147.4298 C.3     1  UNL111     -0.0330
      7 C         118.2591  152.7889  144.9176 C.3     1  UNL111     -0.0330
      8 C         119.8567  152.1316  147.2929 C.3     1  UNL111     -0.0370
      9 C         119.7234  152.3912  144.8157 C.3     1  UNL111     -0.0370
     10 C         121.9519  152.6072  145.9481 C.3     1  UNL111     -0.0357
     11 C         122.7165  153.4160  147.0016 C.3     1  UNL111     -0.0307
     12 C         115.7903  153.8652  146.4120 C.3     1  UNL111     -0.0054
     13 C         115.2341  151.4664  146.3824 C.2     1  UNL111      0.1497
     14 C         124.2043  153.2827  146.8149 C.3     1  UNL111     -0.0698
     15 C         113.7654  151.8580  146.5160 C.3     1  UNL111      0.0336
     16 C         115.6895  154.4509  147.6778 C.3     1  UNL111     -0.0556
     17 C         115.5114  154.6175  145.2681 C.3     1  UNL111     -0.0556
     18 C         124.8843  152.1733  147.3305 C.3     1  UNL111     -0.0650
     19 C         124.9277  154.2532  146.1099 C.3     1  UNL111     -0.0650
     20 C         112.8417  150.6516  146.5428 C.3     1  UNL111     -0.0446
     21 C         115.3407  155.7961  147.7957 C.3     1  UNL111     -0.0787
     22 C         115.1595  155.9618  145.3906 C.3     1  UNL111     -0.0787
     23 C         115.0806  156.5512  146.6525 C.3     1  UNL111     -0.0844
     24 C         126.2615  152.0439  147.1427 C.3     1  UNL111     -0.0304
     25 C         126.3092  154.1193  145.9266 C.3     1  UNL111     -0.0304
     26 C         126.9820  153.0133  146.4430 C.3     1  UNL111      0.0327
     27 C         129.1164  153.7435  145.6862 C.3     1  UNL111      0.0293
     28 H         120.3011  153.8316  146.1800 H       1  UNL111      0.1323
     29 H         117.6866  151.0907  146.0414 H       1  UNL111      0.0863
     30 H         117.9600  152.0159  148.2969 H       1  UNL111      0.0550
     31 H         118.3446  153.6014  147.6361 H       1  UNL111      0.0550
     32 H         118.1949  153.8829  144.9403 H       1  UNL111      0.0550
     33 H         117.7276  152.4578  144.0173 H       1  UNL111      0.0550
     34 H         120.4113  152.4631  148.1740 H       1  UNL111      0.0741
     35 H         119.9866  151.0514  147.1649 H       1  UNL111      0.0741
     36 H         119.8552  151.3092  144.7038 H       1  UNL111      0.0741
     37 H         120.1971  152.9064  143.9737 H       1  UNL111      0.0741
     38 H         122.2328  152.9476  144.9444 H       1  UNL111      0.0751
     39 H         122.1429  151.5306  146.0202 H       1  UNL111      0.0751
     40 H         122.4650  153.0873  148.0160 H       1  UNL111      0.0590
     41 H         122.4301  154.4740  146.9472 H       1  UNL111      0.0590
     42 H         113.4869  152.4954  145.6704 H       1  UNL111      0.0734
     43 H         113.6309  152.4237  147.4434 H       1  UNL111      0.0734
     44 H         115.8706  153.8679  148.5772 H       1  UNL111      0.0993
     45 H         115.5497  154.1640  144.2812 H       1  UNL111      0.0993
     46 H         124.3633  151.4024  147.8937 H       1  UNL111      0.0928
     47 H         124.4345  155.1335  145.7022 H       1  UNL111      0.0928
     48 H         112.9339  150.0652  145.6227 H       1  UNL111      0.0319
     49 H         111.8000  150.9730  146.6403 H       1  UNL111      0.0319
     50 H         113.0767  149.9943  147.3863 H       1  UNL111      0.0319
     51 H         115.2577  156.2552  148.7785 H       1  UNL111      0.0890
     52 H         114.9325  156.5499  144.5039 H       1  UNL111      0.0890
     53 H         114.7975  157.5979  146.7463 H       1  UNL111      0.0876
     54 H         126.7853  151.1824  147.5526 H       1  UNL111      0.1105
     55 H         126.8324  154.8978  145.3799 H       1  UNL111      0.1105
     56 H         130.1554  153.4013  145.7100 H       1  UNL111      0.1069
     57 H         129.0684  154.7025  146.2127 H       1  UNL111      0.1069
     58 H         128.8249  153.8534  144.6365 H       1  UNL111      0.1069
@<TRIPOS>UNITY_ATOM_ATTR
3 1
charge 1
@<TRIPOS>BOND
     1     1    13    2
     2     2    26    1
     3     2    27    1
     4     3     8    1
     5     3     9    1
     6     3    10    1
     7     4     5    1
     8     4    12    1
     9     4    13   am
    10     5     6    1
    11     5     7    1
    12     6     8    1
    13     7     9    1
    14    10    11    1
    15    11    14    1
    16    12    16   ar
    17    12    17   ar
    18    13    15    1
    19    14    18   ar
    20    14    19   ar
    21    15    20    1
    22    16    21   ar
    23    17    22   ar
    24    18    24   ar
    25    19    25   ar
    26    21    23   ar
    27    22    23   ar
    28    24    26   ar
    29    25    26   ar
    30     3    28    1
    31     5    29    1
    32     6    30    1
    33     6    31    1
    34     7    32    1
    35     7    33    1
    36     8    34    1
    37     8    35    1
    38     9    36    1
    39     9    37    1
    40    10    38    1
    41    10    39    1
    42    11    40    1
    43    11    41    1
    44    15    42    1
    45    15    43    1
    46    16    44    1
    47    17    45    1
    48    18    46    1
    49    19    47    1
    50    20    48    1
    51    20    49    1
    52    20    50    1
    53    21    51    1
    54    22    52    1
    55    23    53    1
    56    24    54    1
    57    25    55    1
    58    27    56    1
    59    27    57    1
    60    27    58    1
@<TRIPOS>MOLECULE
13653605
 58 60 0 0 0
SMALL
GASTEIGER

@<TRIPOS>ATOM
      1 O         118.0049  154.9391  145.7156 O.2     1  UNL111     -0.3692
      2 O         115.5525  155.9415  146.4872 O.3     1  UNL111     -0.4368
      3 N         121.7343  152.9667  146.1214 N.4     1  UNL111      0.4267
      4 N         117.4607  152.7759  146.2637 N.am    1  UNL111     -0.2829
      5 C         118.8862  152.3760  146.3286 C.3     1  UNL111      0.0191
      6 C         119.5843  152.5304  144.9678 C.3     1  UNL111     -0.0328
      7 C         119.6460  153.0993  147.4496 C.3     1  UNL111     -0.0328
      8 C         121.0509  152.1523  145.0441 C.3     1  UNL111     -0.0370
      9 C         121.1142  152.7113  147.4749 C.3     1  UNL111     -0.0370
     10 C         123.2390  152.7279  146.0966 C.3     1  UNL111     -0.0358
     11 C         124.0031  153.8116  146.8619 C.3     1  UNL111     -0.0312
     12 C         116.4933  151.7330  146.3457 C.3     1  UNL111     -0.0038
     13 C         117.1284  154.1193  146.0119 C.2     1  UNL111      0.1827
     14 C         125.4890  153.6045  146.7171 C.3     1  UNL111     -0.0753
     15 C         115.6594  154.5485  146.2081 C.3     1  UNL111      0.1014
     16 C         115.5162  151.5850  145.3539 C.3     1  UNL111     -0.0554
     17 C         116.5374  150.8105  147.3989 C.3     1  UNL111     -0.0554
     18 C         126.1724  152.7365  147.5809 C.3     1  UNL111     -0.0811
     19 C         126.1993  154.2447  145.6921 C.3     1  UNL111     -0.0811
     20 C         114.5852  150.5465  145.4274 C.3     1  UNL111     -0.0787
     21 C         115.6025  149.7757  147.4733 C.3     1  UNL111     -0.0787
     22 C         114.6263  149.6453  146.4885 C.3     1  UNL111     -0.0844
     23 C         127.5408  152.5147  147.4208 C.3     1  UNL111     -0.0857
     24 C         127.5678  154.0201  145.5359 C.3     1  UNL111     -0.0857
     25 C         128.2372  153.1547  146.3982 C.3     1  UNL111     -0.0868
     26 C         114.1929  156.3535  146.6130 C.3     1  UNL111      0.0039
     27 C         114.1627  157.8488  146.8573 C.3     1  UNL111     -0.0447
     28 H         121.5807  153.9609  145.8861 H       1  UNL111      0.1323
     29 H         118.9324  151.3039  146.5639 H       1  UNL111      0.0865
     30 H         119.5147  153.5550  144.5896 H       1  UNL111      0.0551
     31 H         119.0832  151.8994  144.2235 H       1  UNL111      0.0551
     32 H         119.1892  152.8601  148.4176 H       1  UNL111      0.0551
     33 H         119.5794  154.1871  147.3445 H       1  UNL111      0.0551
     34 H         121.1917  151.0933  145.2877 H       1  UNL111      0.0741
     35 H         121.5472  152.3759  144.0939 H       1  UNL111      0.0741
     36 H         121.6442  153.3187  148.2129 H       1  UNL111      0.0741
     37 H         121.2538  151.6504  147.7106 H       1  UNL111      0.0741
     38 H         123.5418  152.7354  145.0428 H       1  UNL111      0.0751
     39 H         123.4181  151.7253  146.5025 H       1  UNL111      0.0751
     40 H         123.7485  153.8027  147.9274 H       1  UNL111      0.0589
     41 H         123.7297  154.8069  146.4900 H       1  UNL111      0.0589
     42 H         115.1188  154.3364  145.2809 H       1  UNL111      0.1318
     43 H         115.2207  153.9932  147.0432 H       1  UNL111      0.1318
     44 H         115.4871  152.2411  144.4878 H       1  UNL111      0.0993
     45 H         117.2675  150.9054  148.1977 H       1  UNL111      0.0993
     46 H         125.6553  152.2299  148.3928 H       1  UNL111      0.0893
     47 H         125.7033  154.9308  145.0086 H       1  UNL111      0.0893
     48 H         113.8313  150.4339  144.6509 H       1  UNL111      0.0890
     49 H         115.6279  149.0742  148.3043 H       1  UNL111      0.0890
     50 H         113.8978  148.8392  146.5463 H       1  UNL111      0.0876
     51 H         128.0697  151.8466  148.0972 H       1  UNL111      0.0876
     52 H         128.1175  154.5247  144.7441 H       1  UNL111      0.0876
     53 H         129.3050  152.9851  146.2779 H       1  UNL111      0.0874
     54 H         113.7258  155.8281  147.4531 H       1  UNL111      0.0872
     55 H         113.6460  156.1175  145.6934 H       1  UNL111      0.0872
     56 H         114.7209  158.1037  147.7641 H       1  UNL111      0.0372
     57 H         113.1344  158.2057  146.9631 H       1  UNL111      0.0372
     58 H         114.6385  158.3839  146.0287 H       1  UNL111      0.0372
@<TRIPOS>UNITY_ATOM_ATTR
3 1
charge 1
@<TRIPOS>BOND
     1     1    13    2
     2     2    15    1
     3     2    26    1
     4     3     8    1
     5     3     9    1
     6     3    10    1
     7     4     5    1
     8     4    12    1
     9     4    13   am
    10     5     6    1
    11     5     7    1
    12     6     8    1
    13     7     9    1
    14    10    11    1
    15    11    14    1
    16    12    16   ar
    17    12    17   ar
    18    13    15    1
    19    14    18   ar
    20    14    19   ar
    21    16    20   ar
    22    17    21   ar
    23    18    23   ar
    24    19    24   ar
    25    20    22   ar
    26    21    22   ar
    27    23    25   ar
    28    24    25   ar
    29    26    27    1
    30     3    28    1
    31     5    29    1
    32     6    30    1
    33     6    31    1
    34     7    32    1
    35     7    33    1
    36     8    34    1
    37     8    35    1
    38     9    36    1
    39     9    37    1
    40    10    38    1
    41    10    39    1
    42    11    40    1
    43    11    41    1
    44    15    42    1
    45    15    43    1
    46    16    44    1
    47    17    45    1
    48    18    46    1
    49    19    47    1
    50    20    48    1
    51    21    49    1
    52    22    50    1
    53    23    51    1
    54    24    52    1
    55    25    53    1
    56    26    54    1
    57    26    55    1
    58    27    56    1
    59    27    57    1
    60    27    58    1
@<TRIPOS>MOLECULE
137699935
 55 57 0 0 0
SMALL
GASTEIGER

@<TRIPOS>ATOM
      1 F         115.2499  148.2325  146.5138 F       1  UNL111     -0.2904
      2 O         114.9695  154.3294  146.8211 O.2     1  UNL111     -0.3692
      3 O         115.5846  156.9491  146.3359 O.3     1  UNL111     -0.4394
      4 N         121.4366  153.4142  146.7023 N.4     1  UNL111      0.4267
      5 N         117.1161  153.5082  146.4231 N.am    1  UNL111     -0.2824
      6 C         118.5693  153.7930  146.3266 C.3     1  UNL111      0.0191
      7 C         119.2314  154.0048  147.6952 C.3     1  UNL111     -0.0328
      8 C         119.3786  152.8215  145.4505 C.3     1  UNL111     -0.0328
      9 C         120.6875  154.4234  147.5477 C.3     1  UNL111     -0.0370
     10 C         120.8262  153.2730  145.3239 C.3     1  UNL111     -0.0370
     11 C         122.9263  153.7591  146.6504 C.3     1  UNL111     -0.0358
     12 C         123.7682  152.5469  146.2413 C.3     1  UNL111     -0.0312
     13 C         116.6434  152.1435  146.4823 C.3     1  UNL111      0.0011
     14 C         116.1422  154.5430  146.5065 C.2     1  UNL111      0.1824
     15 C         125.2358  152.8804  146.2954 C.3     1  UNL111     -0.0753
     16 C         116.6106  155.9802  146.1929 C.3     1  UNL111      0.1005
     17 C         115.4830  151.7760  145.7749 C.3     1  UNL111     -0.0399
     18 C         117.3066  151.1437  147.2088 C.3     1  UNL111     -0.0399
     19 C         125.8841  153.4145  145.1727 C.3     1  UNL111     -0.0811
     20 C         125.9642  152.6937  147.4787 C.3     1  UNL111     -0.0811
     21 C         115.0106  150.4598  145.7821 C.3     1  UNL111     -0.0167
     22 C         116.8343  149.8255  147.2197 C.3     1  UNL111     -0.0167
     23 C         115.6932  149.4951  146.5036 C.3     1  UNL111      0.0844
     24 C         127.2365  153.7528  145.2340 C.3     1  UNL111     -0.0857
     25 C         127.3163  153.0342  147.5355 C.3     1  UNL111     -0.0857
     26 C         127.9512  153.5642  146.4146 C.3     1  UNL111     -0.0868
     27 C         115.9975  158.2493  145.9445 C.3     1  UNL111      0.0023
     28 H         121.3683  152.5038  147.1810 H       1  UNL111      0.1323
     29 H         118.6561  154.7513  145.8037 H       1  UNL111      0.0865
     30 H         119.1861  153.0983  148.3045 H       1  UNL111      0.0551
     31 H         118.6935  154.7740  148.2616 H       1  UNL111      0.0551
     32 H         118.9290  152.7597  144.4522 H       1  UNL111      0.0551
     33 H         119.3799  151.8065  145.8569 H       1  UNL111      0.0551
     34 H         120.7842  155.3998  147.0599 H       1  UNL111      0.0741
     35 H         121.1717  154.4565  148.5293 H       1  UNL111      0.0741
     36 H         121.4022  152.5254  144.7725 H       1  UNL111      0.0741
     37 H         120.9112  154.2427  144.8211 H       1  UNL111      0.0741
     38 H         123.2098  154.0858  147.6578 H       1  UNL111      0.0751
     39 H         123.0444  154.6050  145.9633 H       1  UNL111      0.0751
     40 H         123.5167  152.2113  145.2292 H       1  UNL111      0.0589
     41 H         123.5604  151.6971  146.9036 H       1  UNL111      0.0589
     42 H         117.4232  156.2432  146.8766 H       1  UNL111      0.1315
     43 H         116.9697  155.9928  145.1575 H       1  UNL111      0.1315
     44 H         114.9256  152.5081  145.1928 H       1  UNL111      0.1023
     45 H         118.1694  151.3570  147.8235 H       1  UNL111      0.1023
     46 H         125.3539  153.5638  144.2346 H       1  UNL111      0.0893
     47 H         125.4973  152.2729  148.3667 H       1  UNL111      0.0893
     48 H         114.1121  150.1913  145.2346 H       1  UNL111      0.1104
     49 H         117.3375  149.0556  147.7971 H       1  UNL111      0.1104
     50 H         127.7396  154.1578  144.3584 H       1  UNL111      0.0876
     51 H         127.8814  152.8802  148.4525 H       1  UNL111      0.0876
     52 H         129.0070  153.8227  146.4588 H       1  UNL111      0.0874
     53 H         115.1616  158.9376  146.0950 H       1  UNL111      0.0825
     54 H         116.2735  158.2606  144.8857 H       1  UNL111      0.0825
     55 H         116.8410  158.5833  146.5563 H       1  UNL111      0.0825
@<TRIPOS>UNITY_ATOM_ATTR
4 1
charge 1
@<TRIPOS>BOND
     1     1    23    1
     2     2    14    2
     3     3    16    1
     4     3    27    1
     5     4     9    1
     6     4    10    1
     7     4    11    1
     8     5     6    1
     9     5    13    1
    10     5    14   am
    11     6     7    1
    12     6     8    1
    13     7     9    1
    14     8    10    1
    15    11    12    1
    16    12    15    1
    17    13    17   ar
    18    13    18   ar
    19    14    16    1
    20    15    19   ar
    21    15    20   ar
    22    17    21   ar
    23    18    22   ar
    24    19    24   ar
    25    20    25   ar
    26    21    23   ar
    27    22    23   ar
    28    24    26   ar
    29    25    26   ar
    30     4    28    1
    31     6    29    1
    32     7    30    1
    33     7    31    1
    34     8    32    1
    35     8    33    1
    36     9    34    1
    37     9    35    1
    38    10    36    1
    39    10    37    1
    40    11    38    1
    41    11    39    1
    42    12    40    1
    43    12    41    1
    44    16    42    1
    45    16    43    1
    46    17    44    1
    47    18    45    1
    48    19    46    1
    49    20    47    1
    50    21    48    1
    51    22    49    1
    52    24    50    1
    53    25    51    1
    54    26    52    1
    55    27    53    1
    56    27    54    1
    57    27    55    1
@<TRIPOS>MOLECULE
137699967
 32 34 0 0 0
SMALL
GASTEIGER

@<TRIPOS>ATOM
      1 O         115.0269  154.0921  146.3947 O.2     1  UNL111     -0.3578
      2 O         117.4691  156.3977  145.6043 O.3     1  UNL111     -0.3402
      3 N         121.5126  152.8159  147.9622 N.4     1  UNL111      0.4556
      4 N         117.0020  152.8264  146.5064 N.am    1  UNL111     -0.2537
      5 C         118.3494  152.8714  146.8327 C.3     1  UNL111      0.1097
      6 C         118.9979  153.9181  147.5808 C.3     1  UNL111      0.0832
      7 C         119.3030  151.8096  146.6261 C.3     1  UNL111      0.0832
      8 C         120.4670  153.8666  148.0705 C.3     1  UNL111      0.0648
      9 C         120.7591  151.8240  147.1518 C.3     1  UNL111      0.0648
     10 C         122.7435  153.2638  147.3442 C.3     1  UNL111      0.0661
     11 C         124.0918  153.6954  146.7597 C.3     1  UNL111      0.0776
     12 C         116.3018  151.5634  146.3609 C.3     1  UNL111      0.0018
     13 C         116.2482  154.0140  146.3196 C.2     1  UNL111      0.2323
     14 C         125.3754  154.0684  146.2641 C.2     1  UNL111     -0.0058
     15 C         116.9260  155.2422  145.9646 C.3     1  UNL111      0.2611
     16 C         116.6475  150.4443  147.1402 C.3     1  UNL111     -0.0547
     17 C         115.2512  151.4151  145.4405 C.3     1  UNL111     -0.0547
     18 C         125.5638  154.2856  144.9019 C.2     1  UNL111     -0.0052
     19 C         126.4442  154.1958  147.1489 C.2     1  UNL111     -0.0052
     20 C         115.9829  149.2223  146.9906 C.3     1  UNL111     -0.0786
     21 C         114.5858  150.1934  145.2921 C.3     1  UNL111     -0.0786
     22 C         114.9546  149.0967  146.0635 C.3     1  UNL111     -0.0844
     23 C         126.8259  154.6330  144.4245 C.2     1  UNL111     -0.0019
     24 C         127.7053  154.5431  146.6703 C.2     1  UNL111     -0.0019
     25 C         127.8958  154.7609  145.3079 C.2     1  UNL111     -0.0007
     26 C         118.7875  156.1354  145.2136 C.3     1  UNL111      0.1868
     27 H         121.7054  152.4257  148.8928 H       1  UNL111      0.1720
     28 H         117.3999  150.5036  147.9199 H       1  UNL111      0.0994
     29 H         114.9318  152.2365  144.8026 H       1  UNL111      0.0994
     30 H         116.2547  148.3713  147.6112 H       1  UNL111      0.0890
     31 H         113.7737  150.1026  144.5736 H       1  UNL111      0.0890
     32 H         114.4304  148.1503  145.9509 H       1  UNL111      0.0876
@<TRIPOS>UNITY_ATOM_ATTR
3 1
charge 1
@<TRIPOS>BOND
     1     1    13    2
     2     2    15    1
     3     2    26    1
     4     3     8    1
     5     3     9    1
     6     3    10    1
     7     4     5    1
     8     4    12    1
     9     4    13   am
    10     5     6    1
    11     5     7    1
    12     6     8    1
    13     7     9    1
    14    10    11    1
    15    11    14    1
    16    12    16   ar
    17    12    17   ar
    18    13    15    1
    19    14    18    2
    20    14    19    1
    21    16    20   ar
    22    17    21   ar
    23    18    23    1
    24    19    24    2
    25    20    22   ar
    26    21    22   ar
    27    23    25    2
    28    24    25    1
    29     3    27    1
    30    16    28    1
    31    17    29    1
    32    20    30    1
    33    21    31    1
    34    22    32    1
@<TRIPOS>MOLECULE
137699973
 32 35 0 0 0
SMALL
GASTEIGER

@<TRIPOS>ATOM
      1 O         117.0652  156.0728  146.5100 O.2     1  UNL111     -0.3759
      2 N         117.0730  153.7345  146.4715 N.am    1  UNL111     -0.2649
      3 N         121.5159  153.6518  144.8586 N.4     1  UNL111      0.4556
      4 C         115.1618  154.9818  147.3928 C.3     1  UNL111      0.1104
      5 C         114.8283  155.8906  148.4470 C.3     1  UNL111      0.0440
      6 C         114.1697  155.9759  147.1147 C.3     1  UNL111      0.0440
      7 C         118.4353  153.6489  146.2043 C.3     1  UNL111      0.1076
      8 C         119.3737  154.7418  146.2246 C.3     1  UNL111      0.0830
      9 C         119.0774  152.5259  145.5629 C.3     1  UNL111      0.0830
     10 C         116.4989  155.0021  146.7338 C.2     1  UNL111      0.1759
     11 C         120.7821  154.7167  145.5911 C.3     1  UNL111      0.0648
     12 C         120.4989  152.5704  144.9486 C.3     1  UNL111      0.0648
     13 C         122.7839  153.3057  145.4664 C.3     1  UNL111      0.0661
     14 C         116.2515  152.5540  146.4433 C.3     1  UNL111     -0.0003
     15 C         124.1370  152.9450  146.0866 C.3     1  UNL111      0.0776
     16 C         116.6389  151.3993  147.1403 C.3     1  UNL111     -0.0549
     17 C         115.0653  152.5264  145.6935 C.3     1  UNL111     -0.0549
     18 C         125.4040  152.6137  146.6495 C.2     1  UNL111     -0.0058
     19 C         115.8462  150.2497  147.1029 C.3     1  UNL111     -0.0786
     20 C         114.2780  151.3734  145.6550 C.3     1  UNL111     -0.0786
     21 C         114.6674  150.2378  146.3611 C.3     1  UNL111     -0.0844
     22 C         125.4717  152.0028  147.8991 C.2     1  UNL111     -0.0052
     23 C         126.5708  152.9011  145.9452 C.2     1  UNL111     -0.0052
     24 C         126.7114  151.6786  148.4457 C.2     1  UNL111     -0.0019
     25 C         127.8097  152.5763  146.4929 C.2     1  UNL111     -0.0019
     26 C         127.8796  151.9652  147.7428 C.2     1  UNL111     -0.0007
     27 H         121.6424  153.9331  143.8787 H       1  UNL111      0.1720
     28 H         117.5344  151.3874  147.7563 H       1  UNL111      0.0994
     29 H         114.7492  153.3828  145.1014 H       1  UNL111      0.0994
     30 H         116.1403  149.3639  147.6620 H       1  UNL111      0.0890
     31 H         113.3604  151.3587  145.0701 H       1  UNL111      0.0890
     32 H         114.0487  149.3429  146.3349 H       1  UNL111      0.0876
@<TRIPOS>UNITY_ATOM_ATTR
3 1
charge 1
@<TRIPOS>BOND
     1     1    10    2
     2     2     7    1
     3     2    10   am
     4     2    14    1
     5     3    11    1
     6     3    12    1
     7     3    13    1
     8     4     5    1
     9     4     6    1
    10     4    10    1
    11     5     6    1
    12     7     8    1
    13     7     9    1
    14     8    11    1
    15     9    12    1
    16    13    15    1
    17    14    16   ar
    18    14    17   ar
    19    15    18    1
    20    16    19   ar
    21    17    20   ar
    22    18    22    2
    23    18    23    1
    24    19    21   ar
    25    20    21   ar
    26    22    24    1
    27    23    25    2
    28    24    26    2
    29    25    26    1
    30     3    27    1
    31    16    28    1
    32    17    29    1
    33    19    30    1
    34    20    31    1
    35    21    32    1
@<TRIPOS>MOLECULE
137700047
 60 62 0 0 0
SMALL
GASTEIGER

@<TRIPOS>ATOM
      1 F         113.3083  149.6776  146.9965 F       1  UNL111     -0.2904
      2 O         118.4101  155.1098  145.3035 O.2     1  UNL111     -0.3821
      3 N         121.8215  152.7858  146.0131 N.4     1  UNL111      0.4267
      4 N         117.5714  153.1516  146.1676 N.am    1  UNL111     -0.2901
      5 C         118.9302  152.5706  146.3016 C.3     1  UNL111      0.0176
      6 C         119.7910  153.3464  147.3108 C.3     1  UNL111     -0.0330
      7 C         119.6235  152.4163  144.9370 C.3     1  UNL111     -0.0330
      8 C         121.2032  152.7965  147.3911 C.3     1  UNL111     -0.0370
      9 C         121.0403  151.8904  145.0772 C.3     1  UNL111     -0.0370
     10 C         123.2975  152.4068  146.0319 C.3     1  UNL111     -0.0358
     11 C         124.1662  153.5703  146.5188 C.3     1  UNL111     -0.0312
     12 C         117.4382  154.4795  145.7325 C.2     1  UNL111      0.1506
     13 C         116.4652  152.2769  146.3876 C.3     1  UNL111     -0.0005
     14 C         116.0761  155.1551  145.8752 C.3     1  UNL111      0.0360
     15 C         125.6195  153.1746  146.5350 C.3     1  UNL111     -0.0753
     16 C         116.1866  156.6682  146.0860 C.3     1  UNL111     -0.0394
     17 C         116.4195  151.4650  147.5316 C.3     1  UNL111     -0.0401
     18 C         115.4300  152.1796  145.4461 C.3     1  UNL111     -0.0401
     19 C         116.7600  157.0218  147.4609 C.3     1  UNL111     -0.0619
     20 C         126.1820  152.5907  147.6792 C.3     1  UNL111     -0.0811
     21 C         126.4191  153.3529  145.3976 C.3     1  UNL111     -0.0811
     22 C         115.3492  150.5911  147.7391 C.3     1  UNL111     -0.0167
     23 C         114.3618  151.3028  145.6537 C.3     1  UNL111     -0.0167
     24 C         114.3302  150.5187  146.7988 C.3     1  UNL111      0.0844
     25 C         116.8323  158.5275  147.6614 C.3     1  UNL111     -0.0693
     26 C         127.5200  152.1947  147.6843 C.3     1  UNL111     -0.0857
     27 C         127.7567  152.9550  145.4069 C.3     1  UNL111     -0.0857
     28 C         128.3059  152.3754  146.5486 C.3     1  UNL111     -0.0868
     29 H         121.7597  153.7424  145.6281 H       1  UNL111      0.1323
     30 H         118.8360  151.5503  146.6963 H       1  UNL111      0.0863
     31 H         119.3242  153.3007  148.3023 H       1  UNL111      0.0550
     32 H         119.8524  154.4096  147.0566 H       1  UNL111      0.0550
     33 H         119.6642  153.3647  144.3926 H       1  UNL111      0.0550
     34 H         119.0418  151.7332  144.3058 H       1  UNL111      0.0550
     35 H         121.8145  153.4329  148.0360 H       1  UNL111      0.0741
     36 H         121.2223  151.7701  147.7742 H       1  UNL111      0.0741
     37 H         121.0667  150.8746  145.4871 H       1  UNL111      0.0741
     38 H         121.5447  151.9040  144.1053 H       1  UNL111      0.0741
     39 H         123.5751  152.1439  145.0044 H       1  UNL111      0.0751
     40 H         123.3988  151.5129  146.6583 H       1  UNL111      0.0751
     41 H         123.8763  153.8943  147.5243 H       1  UNL111      0.0589
     42 H         124.0293  154.4439  145.8689 H       1  UNL111      0.0589
     43 H         115.5116  154.7232  146.7073 H       1  UNL111      0.0747
     44 H         115.5221  154.9810  144.9469 H       1  UNL111      0.0747
     45 H         115.1843  157.1048  145.9943 H       1  UNL111      0.0381
     46 H         116.8021  157.1194  145.2985 H       1  UNL111      0.0381
     47 H         117.1863  151.5289  148.2983 H       1  UNL111      0.1023
     48 H         115.4535  152.7497  144.5210 H       1  UNL111      0.1023
     49 H         117.7648  156.6000  147.5753 H       1  UNL111      0.0312
     50 H         116.1342  156.5845  148.2478 H       1  UNL111      0.0312
     51 H         125.5940  152.4458  148.5828 H       1  UNL111      0.0893
     52 H         126.0189  153.8108  144.4955 H       1  UNL111      0.0893
     53 H         115.2969  149.9729  148.6306 H       1  UNL111      0.1104
     54 H         113.5594  151.2209  144.9261 H       1  UNL111      0.1104
     55 H         117.4763  158.9927  146.9081 H       1  UNL111      0.0256
     56 H         117.2431  158.7586  148.6493 H       1  UNL111      0.0256
     57 H         115.8382  158.9809  147.5922 H       1  UNL111      0.0256
     58 H         127.9557  151.7503  148.5766 H       1  UNL111      0.0876
     59 H         128.3772  153.1023  144.5254 H       1  UNL111      0.0876
     60 H         129.3506  152.0720  146.5560 H       1  UNL111      0.0874
@<TRIPOS>UNITY_ATOM_ATTR
3 1
charge 1
@<TRIPOS>BOND
     1     1    24    1
     2     2    12    2
     3     3     8    1
     4     3     9    1
     5     3    10    1
     6     4     5    1
     7     4    12   am
     8     4    13    1
     9     5     6    1
    10     5     7    1
    11     6     8    1
    12     7     9    1
    13    10    11    1
    14    11    15    1
    15    12    14    1
    16    13    17   ar
    17    13    18   ar
    18    14    16    1
    19    15    20   ar
    20    15    21   ar
    21    16    19    1
    22    17    22   ar
    23    18    23   ar
    24    19    25    1
    25    20    26   ar
    26    21    27   ar
    27    22    24   ar
    28    23    24   ar
    29    26    28   ar
    30    27    28   ar
    31     3    29    1
    32     5    30    1
    33     6    31    1
    34     6    32    1
    35     7    33    1
    36     7    34    1
    37     8    35    1
    38     8    36    1
    39     9    37    1
    40     9    38    1
    41    10    39    1
    42    10    40    1
    43    11    41    1
    44    11    42    1
    45    14    43    1
    46    14    44    1
    47    16    45    1
    48    16    46    1
    49    17    47    1
    50    18    48    1
    51    19    49    1
    52    19    50    1
    53    20    51    1
    54    21    52    1
    55    22    53    1
    56    23    54    1
    57    25    55    1
    58    25    56    1
    59    25    57    1
    60    26    58    1
    61    27    59    1
    62    28    60    1
@<TRIPOS>MOLECULE
137700069
 60 62 0 0 0
SMALL
GASTEIGER

@<TRIPOS>ATOM
      1 O         118.0245  155.2329  146.4319 O.2     1  UNL111     -0.3810
      2 N         121.6353  153.0453  146.1322 N.4     1  UNL111      0.4267
      3 N         117.3834  153.0345  146.5855 N.am    1  UNL111     -0.2899
      4 C         118.7804  152.5568  146.4527 C.3     1  UNL111      0.0177
      5 C         119.6609  153.0105  147.6263 C.3     1  UNL111     -0.0330
      6 C         119.3891  152.9346  145.0929 C.3     1  UNL111     -0.0330
      7 C         121.0992  152.5557  147.4573 C.3     1  UNL111     -0.0370
      8 C         120.8328  152.4818  144.9792 C.3     1  UNL111     -0.0370
      9 C         123.1210  152.7583  145.9518 C.3     1  UNL111     -0.0358
     10 C         117.1258  154.4117  146.6469 C.2     1  UNL111      0.1528
     11 C         116.3615  152.0536  146.4312 C.3     1  UNL111     -0.0052
     12 C         123.9831  153.7015  146.7957 C.3     1  UNL111     -0.0312
     13 C         115.7587  154.8774  147.1782 C.3     1  UNL111      0.0374
     14 C         115.4173  156.2996  146.7028 C.3     1  UNL111     -0.0396
     15 C         125.4462  153.4197  146.5731 C.3     1  UNL111     -0.0753
     16 C         115.8179  154.8341  148.7079 C.3     1  UNL111     -0.0422
     17 C         115.3748  152.2042  145.4486 C.3     1  UNL111     -0.0555
     18 C         116.3720  150.8921  147.2133 C.3     1  UNL111     -0.0555
     19 C         115.1378  156.3571  145.2064 C.3     1  UNL111     -0.0647
     20 C         114.3998  151.2208  145.2695 C.3     1  UNL111     -0.0787
     21 C         115.3937  149.9115  147.0352 C.3     1  UNL111     -0.0787
     22 C         126.1094  152.4594  147.3506 C.3     1  UNL111     -0.0811
     23 C         126.1541  154.0865  145.5636 C.3     1  UNL111     -0.0811
     24 C         114.4082  150.0768  146.0644 C.3     1  UNL111     -0.0844
     25 C         127.4561  152.1742  147.1224 C.3     1  UNL111     -0.0857
     26 C         127.5009  153.7979  145.3387 C.3     1  UNL111     -0.0857
     27 C         128.1506  152.8419  146.1164 C.3     1  UNL111     -0.0868
     28 H         121.5181  154.0710  146.1013 H       1  UNL111      0.1323
     29 H         118.7748  151.4588  146.4825 H       1  UNL111      0.0863
     30 H         119.2582  152.6087  148.5641 H       1  UNL111      0.0550
     31 H         119.6564  154.0997  147.7378 H       1  UNL111      0.0550
     32 H         119.3528  154.0148  144.9199 H       1  UNL111      0.0550
     33 H         118.8004  152.4800  144.2867 H       1  UNL111      0.0550
     34 H         121.7179  152.9777  148.2531 H       1  UNL111      0.0741
     35 H         121.1882  151.4636  147.4705 H       1  UNL111      0.0741
     36 H         120.9278  151.3906  145.0090 H       1  UNL111      0.0741
     37 H         121.2743  152.8604  144.0512 H       1  UNL111      0.0741
     38 H         123.3474  152.9029  144.8888 H       1  UNL111      0.0751
     39 H         123.2838  151.7032  146.2009 H       1  UNL111      0.0751
     40 H         123.7622  153.5984  147.8637 H       1  UNL111      0.0589
     41 H         123.7651  154.7462  146.5404 H       1  UNL111      0.0589
     42 H         114.9501  154.2185  146.8623 H       1  UNL111      0.0794
     43 H         116.2273  156.9980  146.9451 H       1  UNL111      0.0381
     44 H         114.5248  156.6564  147.2316 H       1  UNL111      0.0381
     45 H         116.6018  155.4956  149.0936 H       1  UNL111      0.0333
     46 H         116.0359  153.8226  149.0667 H       1  UNL111      0.0333
     47 H         114.8634  155.1459  149.1447 H       1  UNL111      0.0333
     48 H         115.3628  153.0728  144.7946 H       1  UNL111      0.0993
     49 H         117.1114  150.7513  147.9965 H       1  UNL111      0.0993
     50 H         116.0149  156.0634  144.6219 H       1  UNL111      0.0264
     51 H         114.8647  157.3759  144.9137 H       1  UNL111      0.0264
     52 H         114.3084  155.6950  144.9380 H       1  UNL111      0.0264
     53 H         113.6339  151.3451  144.5069 H       1  UNL111      0.0890
     54 H         115.3921  149.0208  147.6595 H       1  UNL111      0.0890
     55 H         125.5940  151.9292  148.1485 H       1  UNL111      0.0893
     56 H         125.6742  154.8435  144.9468 H       1  UNL111      0.0893
     57 H         113.6442  149.3143  145.9278 H       1  UNL111      0.0876
     58 H         127.9700  151.4350  147.7331 H       1  UNL111      0.0876
     59 H         128.0498  154.3232  144.5600 H       1  UNL111      0.0876
     60 H         129.2020  152.6229  145.9434 H       1  UNL111      0.0874
@<TRIPOS>UNITY_ATOM_ATTR
2 1
charge 1
@<TRIPOS>BOND
     1     1    10    2
     2     2     7    1
     3     2     8    1
     4     2     9    1
     5     3     4    1
     6     3    10   am
     7     3    11    1
     8     4     5    1
     9     4     6    1
    10     5     7    1
    11     6     8    1
    12     9    12    1
    13    10    13    1
    14    11    17   ar
    15    11    18   ar
    16    12    15    1
    17    13    14    1
    18    13    16    1
    19    14    19    1
    20    15    22   ar
    21    15    23   ar
    22    17    20   ar
    23    18    21   ar
    24    20    24   ar
    25    21    24   ar
    26    22    25   ar
    27    23    26   ar
    28    25    27   ar
    29    26    27   ar
    30     2    28    1
    31     4    29    1
    32     5    30    1
    33     5    31    1
    34     6    32    1
    35     6    33    1
    36     7    34    1
    37     7    35    1
    38     8    36    1
    39     8    37    1
    40     9    38    1
    41     9    39    1
    42    12    40    1
    43    12    41    1
    44    13    42    1
    45    14    43    1
    46    14    44    1
    47    16    45    1
    48    16    46    1
    49    16    47    1
    50    17    48    1
    51    18    49    1
    52    19    50    1
    53    19    51    1
    54    19    52    1
    55    20    53    1
    56    21    54    1
    57    22    55    1
    58    23    56    1
    59    24    57    1
    60    25    58    1
    61    26    59    1
    62    27    60    1
@<TRIPOS>MOLECULE
157010657
 62 64 0 0 0
SMALL
GASTEIGER

@<TRIPOS>ATOM
      1 O         118.5160  152.1370  144.4725 O.2     1  UNL111     -0.3680
      2 O         116.0506  151.3094  143.8839 O.3     1  UNL111     -0.4236
      3 O         112.9422  149.3623  147.6212 O.3     1  UNL111     -0.4592
      4 N         122.1844  153.5530  146.0469 N.4     1  UNL111      0.4267
      5 N         117.9127  153.6607  146.0900 N.am    1  UNL111     -0.2822
      6 C         119.3246  153.9672  146.4211 C.3     1  UNL111      0.0192
      7 C         120.0511  152.7469  147.0054 C.3     1  UNL111     -0.0328
      8 C         120.0815  154.5756  145.2288 C.3     1  UNL111     -0.0328
      9 C         121.5079  153.0498  147.3005 C.3     1  UNL111     -0.0370
     10 C         121.5413  154.8341  145.5606 C.3     1  UNL111     -0.0370
     11 C         123.6897  153.7215  146.2239 C.3     1  UNL111     -0.0358
     12 C         117.6232  152.6592  145.1558 C.2     1  UNL111      0.1847
     13 C         124.4081  152.3694  146.1779 C.3     1  UNL111     -0.0312
     14 C         116.9181  154.4988  146.6723 C.3     1  UNL111     -0.0036
     15 C         116.1938  152.0683  145.0861 C.3     1  UNL111      0.1036
     16 C         115.9660  151.1458  146.2888 C.3     1  UNL111     -0.0063
     17 C         125.8820  152.5404  146.4339 C.3     1  UNL111     -0.0753
     18 C         115.9722  155.1462  145.8690 C.3     1  UNL111     -0.0554
     19 C         116.9070  154.7300  148.0542 C.3     1  UNL111     -0.0554
     20 C         114.5217  150.6512  146.3697 C.3     1  UNL111     -0.0289
     21 C         115.0110  155.9826  146.4412 C.3     1  UNL111     -0.0787
     22 C         115.9441  155.5654  148.6249 C.3     1  UNL111     -0.0787
     23 C         126.7700  152.7583  145.3720 C.3     1  UNL111     -0.0811
     24 C         126.3797  152.5131  147.7449 C.3     1  UNL111     -0.0811
     25 C         114.9951  156.1887  147.8184 C.3     1  UNL111     -0.0844
     26 C         114.3073  149.7442  147.5743 C.3     1  UNL111     -0.0004
     27 C         128.1313  152.9423  145.6188 C.3     1  UNL111     -0.0857
     28 C         127.7412  152.6977  147.9870 C.3     1  UNL111     -0.0857
     29 C         128.6159  152.9132  146.9247 C.3     1  UNL111     -0.0868
     30 H         116.9174  150.8958  143.7055 H       1  UNL111      0.2449
     31 H         112.8340  148.7502  148.3692 H       1  UNL111      0.2329
     32 H         122.0454  152.8513  145.3021 H       1  UNL111      0.1323
     33 H         119.3374  154.7395  147.2021 H       1  UNL111      0.0865
     34 H         120.0087  151.8897  146.3254 H       1  UNL111      0.0551
     35 H         119.5499  152.4270  147.9270 H       1  UNL111      0.0551
     36 H         119.6033  155.5170  144.9315 H       1  UNL111      0.0551
     37 H         120.0395  153.9257  144.3491 H       1  UNL111      0.0551
     38 H         121.6183  153.8194  148.0725 H       1  UNL111      0.0741
     39 H         122.0182  152.1393  147.6245 H       1  UNL111      0.0741
     40 H         122.0812  155.1565  144.6642 H       1  UNL111      0.0741
     41 H         121.6600  155.5863  146.3483 H       1  UNL111      0.0741
     42 H         123.8495  154.2552  147.1679 H       1  UNL111      0.0751
     43 H         124.0431  154.3554  145.4023 H       1  UNL111      0.0751
     44 H         124.2539  151.8938  145.2011 H       1  UNL111      0.0589
     45 H         124.0022  151.6712  146.9178 H       1  UNL111      0.0589
     46 H         115.4332  152.8450  145.0470 H       1  UNL111      0.1363
     47 H         116.2205  151.6627  147.2210 H       1  UNL111      0.0529
     48 H         116.6336  150.2775  146.2139 H       1  UNL111      0.0529
     49 H         115.9801  155.0356  144.7866 H       1  UNL111      0.0993
     50 H         117.6138  154.2342  148.7129 H       1  UNL111      0.0993
     51 H         114.2465  150.1086  145.4569 H       1  UNL111      0.0458
     52 H         113.8345  151.5046  146.4311 H       1  UNL111      0.0458
     53 H         114.2745  156.4774  145.8109 H       1  UNL111      0.0890
     54 H         115.9249  155.7243  149.7007 H       1  UNL111      0.0890
     55 H         126.4208  152.7763  144.3417 H       1  UNL111      0.0893
     56 H         125.7210  152.3364  148.5924 H       1  UNL111      0.0893
     57 H         114.2413  156.8356  148.2625 H       1  UNL111      0.0876
     58 H         114.9228  148.8424  147.4970 H       1  UNL111      0.0861
     59 H         114.5545  150.2651  148.5049 H       1  UNL111      0.0861
     60 H         128.8200  153.1017  144.7918 H       1  UNL111      0.0876
     61 H         128.1255  152.6664  149.0043 H       1  UNL111      0.0876
     62 H         129.6783  153.0502  147.1140 H       1  UNL111      0.0874
@<TRIPOS>UNITY_ATOM_ATTR
4 1
charge 1
@<TRIPOS>BOND
     1     1    12    2
     2     2    15    1
     3     3    26    1
     4     4     9    1
     5     4    10    1
     6     4    11    1
     7     5     6    1
     8     5    12   am
     9     5    14    1
    10     6     7    1
    11     6     8    1
    12     7     9    1
    13     8    10    1
    14    11    13    1
    15    12    15    1
    16    13    17    1
    17    14    18   ar
    18    14    19   ar
    19    15    16    1
    20    16    20    1
    21    17    23   ar
    22    17    24   ar
    23    18    21   ar
    24    19    22   ar
    25    20    26    1
    26    21    25   ar
    27    22    25   ar
    28    23    27   ar
    29    24    28   ar
    30    27    29   ar
    31    28    29   ar
    32     2    30    1
    33     3    31    1
    34     4    32    1
    35     6    33    1
    36     7    34    1
    37     7    35    1
    38     8    36    1
    39     8    37    1
    40     9    38    1
    41     9    39    1
    42    10    40    1
    43    10    41    1
    44    11    42    1
    45    11    43    1
    46    13    44    1
    47    13    45    1
    48    15    46    1
    49    16    47    1
    50    16    48    1
    51    18    49    1
    52    19    50    1
    53    20    51    1
    54    20    52    1
    55    21    53    1
    56    22    54    1
    57    23    55    1
    58    24    56    1
    59    25    57    1
    60    26    58    1
    61    26    59    1
    62    27    60    1
    63    28    61    1
    64    29    62    1
@<TRIPOS>MOLECULE
165365093
 60 63 0 0 0
SMALL
GASTEIGER

@<TRIPOS>ATOM
      1 O         116.3667  155.5913  146.7886 O.2     1  UNL111     -0.3824
      2 O         127.2358  153.3226  144.9248 O.2     1  UNL111     -0.5165
      3 O         127.9786  152.8703  147.1741 O.2     1  UNL111     -0.5167
      4 N         120.2194  154.0040  146.5415 N.4     1  UNL111      0.4271
      5 N         116.0136  153.3361  146.5229 N.am    1  UNL111     -0.2907
      6 C         117.4699  153.0610  146.4709 C.3     1  UNL111      0.0176
      7 C         118.1297  153.7357  145.2547 C.3     1  UNL111     -0.0328
      8 C         118.1719  153.4085  147.7939 C.3     1  UNL111     -0.0328
      9 C         119.6326  153.5227  145.2342 C.3     1  UNL111     -0.0365
     10 C         119.6748  153.2095  147.7083 C.3     1  UNL111     -0.0365
     11 C         121.7543  154.1342  146.5734 C.3     1  UNL111     -0.0363
     12 C         122.4486  152.8299  146.1297 C.3     1  UNL111     -0.0265
     13 C         122.1608  155.3475  145.7322 C.3     1  UNL111     -0.0589
     14 C         115.1412  152.2492  146.2183 C.3     1  UNL111     -0.0054
     15 C         115.5706  154.6469  146.7574 C.2     1  UNL111      0.1497
     16 C         123.9255  152.8189  146.4446 C.3     1  UNL111     -0.0524
     17 C         114.0899  154.8676  147.0500 C.3     1  UNL111      0.0336
     18 C         124.8657  153.0852  145.4356 C.3     1  UNL111     -0.0049
     19 C         114.1522  152.3769  145.2358 C.3     1  UNL111     -0.0556
     20 C         115.2964  151.0157  146.8651 C.3     1  UNL111     -0.0556
     21 C         124.3718  152.5526  147.7602 C.3     1  UNL111     -0.0587
     22 C         126.2029  153.0814  145.7746 C.3     1  UNL111      0.1134
     23 C         113.8539  156.1461  147.8403 C.3     1  UNL111     -0.0446
     24 C         125.7357  152.5556  148.0709 C.3     1  UNL111     -0.0096
     25 C         126.6260  152.8248  147.0553 C.3     1  UNL111      0.1123
     26 C         113.3194  151.2997  144.9229 C.3     1  UNL111     -0.0787
     27 C         114.4605  149.9404  146.5539 C.3     1  UNL111     -0.0787
     28 C         113.4717  150.0837  145.5840 C.3     1  UNL111     -0.0844
     29 C         128.3633  153.1730  145.8160 C.3     1  UNL111      0.1466
     30 H         119.8699  154.9670  146.6780 H       1  UNL111      0.1335
     31 H         117.6154  151.9829  146.3197 H       1  UNL111      0.0863
     32 H         117.9365  154.8128  145.2335 H       1  UNL111      0.0551
     33 H         117.6923  153.3346  144.3320 H       1  UNL111      0.0551
     34 H         117.7662  152.7847  148.5997 H       1  UNL111      0.0551
     35 H         117.9812  154.4444  148.0924 H       1  UNL111      0.0551
     36 H         119.8875  152.4643  145.1170 H       1  UNL111      0.0743
     37 H         120.0835  154.0991  144.4224 H       1  UNL111      0.0743
     38 H         120.1585  153.5770  148.6190 H       1  UNL111      0.0743
     39 H         119.9359  152.1575  147.5554 H       1  UNL111      0.0743
     40 H         122.0004  154.3617  147.6180 H       1  UNL111      0.0798
     41 H         122.3058  152.6662  145.0540 H       1  UNL111      0.0605
     42 H         121.9984  151.9614  146.6249 H       1  UNL111      0.0605
     43 H         122.0324  155.1664  144.6607 H       1  UNL111      0.0404
     44 H         123.2137  155.5977  145.8990 H       1  UNL111      0.0404
     45 H         121.5737  156.2319  146.0022 H       1  UNL111      0.0404
     46 H         113.6919  154.0262  147.6257 H       1  UNL111      0.0734
     47 H         113.5494  154.9434  146.1025 H       1  UNL111      0.0734
     48 H         124.5744  153.2886  144.4100 H       1  UNL111      0.1165
     49 H         114.0364  153.2967  144.6690 H       1  UNL111      0.0993
     50 H         116.0360  150.8824  147.6491 H       1  UNL111      0.0993
     51 H         123.6627  152.3295  148.5549 H       1  UNL111      0.0935
     52 H         114.4058  156.1296  148.7860 H       1  UNL111      0.0319
     53 H         112.7893  156.2631  148.0654 H       1  UNL111      0.0319
     54 H         114.1802  157.0260  147.2760 H       1  UNL111      0.0319
     55 H         126.0888  152.3480  149.0757 H       1  UNL111      0.1146
     56 H         112.5543  151.4074  144.1569 H       1  UNL111      0.0890
     57 H         114.5722  148.9920  147.0747 H       1  UNL111      0.0890
     58 H         112.8188  149.2475  145.3426 H       1  UNL111      0.0876
     59 H         128.9378  154.1063  145.8137 H       1  UNL111      0.2019
     60 H         129.0014  152.3639  145.4424 H       1  UNL111      0.2019
@<TRIPOS>UNITY_ATOM_ATTR
4 1
charge 1
@<TRIPOS>BOND
     1     1    15    2
     2     2    22    1
     3     2    29    1
     4     3    25    1
     5     3    29    1
     6     4     9    1
     7     4    10    1
     8     4    11    1
     9     5     6    1
    10     5    14    1
    11     5    15   am
    12     6     7    1
    13     6     8    1
    14     7     9    1
    15     8    10    1
    16    11    12    1
    17    11    13    1
    18    12    16    1
    19    14    19   ar
    20    14    20   ar
    21    15    17    1
    22    16    18   ar
    23    16    21   ar
    24    17    23    1
    25    18    22   ar
    26    19    26   ar
    27    20    27   ar
    28    21    24   ar
    29    22    25   ar
    30    24    25   ar
    31    26    28   ar
    32    27    28   ar
    33     4    30    1
    34     6    31    1
    35     7    32    1
    36     7    33    1
    37     8    34    1
    38     8    35    1
    39     9    36    1
    40     9    37    1
    41    10    38    1
    42    10    39    1
    43    11    40    1
    44    12    41    1
    45    12    42    1
    46    13    43    1
    47    13    44    1
    48    13    45    1
    49    17    46    1
    50    17    47    1
    51    18    48    1
    52    19    49    1
    53    20    50    1
    54    21    51    1
    55    23    52    1
    56    23    53    1
    57    23    54    1
    58    24    55    1
    59    26    56    1
    60    27    57    1
    61    28    58    1
    62    29    59    1
    63    29    60    1
@<TRIPOS>MOLECULE
165365263
 58 60 0 0 0
SMALL
GASTEIGER

@<TRIPOS>ATOM
      1 O         125.0755  155.4745  146.9634 O.3     1  UNL111     -0.4382
      2 O         119.2520  151.2659  146.4127 O.2     1  UNL111     -0.3822
      3 N         121.4782  154.5340  146.1978 N.4     1  UNL111      0.4299
      4 N         117.5954  152.8687  146.3430 N.am    1  UNL111     -0.2887
      5 C         118.5713  154.0207  146.2672 C.3     1  UNL111      0.0186
      6 C         119.4264  153.8833  144.9766 C.3     1  UNL111     -0.0312
      7 C         119.4642  154.0164  147.5395 C.3     1  UNL111     -0.0312
      8 C         120.6637  154.7651  144.9516 C.3     1  UNL111     -0.0347
      9 C         120.7021  154.8899  147.4363 C.3     1  UNL111     -0.0347
     10 C         117.8675  155.4111  146.2050 C.3     1  UNL111     -0.0411
     11 C         122.8211  155.2591  146.1207 C.3     1  UNL111     -0.0088
     12 C         116.2077  153.1529  146.3668 C.3     1  UNL111     -0.0044
     13 C         123.8947  154.6837  147.0788 C.3     1  UNL111      0.0357
     14 C         118.0476  151.5375  146.4088 C.2     1  UNL111      0.1504
     15 C         116.9912  150.4363  146.4751 C.3     1  UNL111      0.0337
     16 C         124.2110  153.2354  146.7804 C.3     1  UNL111     -0.0428
     17 C         115.5538  153.3211  147.5910 C.3     1  UNL111     -0.0554
     18 C         115.4989  153.2591  145.1667 C.3     1  UNL111     -0.0554
     19 C         117.6058  149.0464  146.5169 C.3     1  UNL111     -0.0445
     20 C         114.1882  153.6039  147.6117 C.3     1  UNL111     -0.0787
     21 C         114.1334  153.5421  145.1938 C.3     1  UNL111     -0.0787
     22 C         123.7865  152.2234  147.6545 C.3     1  UNL111     -0.0712
     23 C         124.9081  152.8759  145.6150 C.3     1  UNL111     -0.0712
     24 C         113.4802  153.7156  146.4146 C.3     1  UNL111     -0.0844
     25 C         124.0433  150.8834  147.3612 C.3     1  UNL111     -0.0839
     26 C         125.1660  151.5356  145.3280 C.3     1  UNL111     -0.0839
     27 C         124.7302  150.5405  146.1988 C.3     1  UNL111     -0.0864
     28 H         125.8235  154.9508  147.3104 H       1  UNL111      0.2432
     29 H         121.6864  153.5194  146.2240 H       1  UNL111      0.1349
     30 H         118.8074  154.1031  144.0968 H       1  UNL111      0.0562
     31 H         119.7664  152.8543  144.8269 H       1  UNL111      0.0562
     32 H         119.8084  153.0085  147.7888 H       1  UNL111      0.0562
     33 H         118.8711  154.3306  148.4085 H       1  UNL111      0.0562
     34 H         121.2904  154.4980  144.0936 H       1  UNL111      0.0746
     35 H         120.4264  155.8323  144.8963 H       1  UNL111      0.0746
     36 H         120.4631  155.9572  147.3904 H       1  UNL111      0.0746
     37 H         121.3483  154.7140  148.3011 H       1  UNL111      0.0746
     38 H         117.2289  155.5015  145.3196 H       1  UNL111      0.0372
     39 H         118.5831  156.2372  146.1556 H       1  UNL111      0.0372
     40 H         117.2477  155.5905  147.0903 H       1  UNL111      0.0372
     41 H         122.6364  156.3208  146.3240 H       1  UNL111      0.0884
     42 H         123.1721  155.1862  145.0840 H       1  UNL111      0.0884
     43 H         123.5630  154.7873  148.1170 H       1  UNL111      0.1200
     44 H         116.3443  150.5064  145.5949 H       1  UNL111      0.0734
     45 H         116.3837  150.5766  147.3747 H       1  UNL111      0.0734
     46 H         116.0949  153.2299  148.5285 H       1  UNL111      0.0993
     47 H         115.9968  153.1181  144.2116 H       1  UNL111      0.0993
     48 H         118.2138  148.8582  145.6259 H       1  UNL111      0.0319
     49 H         116.8210  148.2849  146.5623 H       1  UNL111      0.0319
     50 H         118.2490  148.9269  147.3950 H       1  UNL111      0.0319
     51 H         113.6711  153.7333  148.5598 H       1  UNL111      0.0890
     52 H         113.5735  153.6232  144.2648 H       1  UNL111      0.0890
     53 H         123.2626  152.4584  148.5791 H       1  UNL111      0.0917
     54 H         125.2727  153.6362  144.9252 H       1  UNL111      0.0917
     55 H         112.4140  153.9327  146.4332 H       1  UNL111      0.0876
     56 H         123.7172  150.1007  148.0438 H       1  UNL111      0.0878
     57 H         125.7167  151.2643  144.4295 H       1  UNL111      0.0878
     58 H         124.9378  149.4953  145.9778 H       1  UNL111      0.0874
@<TRIPOS>UNITY_ATOM_ATTR
3 1
charge 1
@<TRIPOS>BOND
     1     1    13    1
     2     2    14    2
     3     3     8    1
     4     3     9    1
     5     3    11    1
     6     4     5    1
     7     4    12    1
     8     4    14   am
     9     5     6    1
    10     5     7    1
    11     5    10    1
    12     6     8    1
    13     7     9    1
    14    11    13    1
    15    12    17   ar
    16    12    18   ar
    17    13    16    1
    18    14    15    1
    19    15    19    1
    20    16    22   ar
    21    16    23   ar
    22    17    20   ar
    23    18    21   ar
    24    20    24   ar
    25    21    24   ar
    26    22    25   ar
    27    23    26   ar
    28    25    27   ar
    29    26    27   ar
    30     1    28    1
    31     3    29    1
    32     6    30    1
    33     6    31    1
    34     7    32    1
    35     7    33    1
    36     8    34    1
    37     8    35    1
    38     9    36    1
    39     9    37    1
    40    10    38    1
    41    10    39    1
    42    10    40    1
    43    11    41    1
    44    11    42    1
    45    13    43    1
    46    15    44    1
    47    15    45    1
    48    17    46    1
    49    18    47    1
    50    19    48    1
    51    19    49    1
    52    19    50    1
    53    20    51    1
    54    21    52    1
    55    22    53    1
    56    23    54    1
    57    24    55    1
    58    25    56    1
    59    26    57    1
    60    27    58    1
@<TRIPOS>MOLECULE
527021
 54 56 0 0 0
SMALL
GASTEIGER

@<TRIPOS>ATOM
      1 F         116.6419  148.3525  146.5859 F       1  UNL111     -0.2904
      2 O         117.1202  155.8737  146.9388 O.2     1  UNL111     -0.3812
      3 N         122.0173  153.9367  147.2325 N.4     1  UNL111      0.4292
      4 N         117.7997  153.7687  146.3237 N.am    1  UNL111     -0.2895
      5 C         119.2047  154.1820  146.5278 C.3     1  UNL111      0.0178
      6 C         120.2234  153.5633  145.5664 C.3     1  UNL111     -0.0327
      7 C         119.6548  153.9805  147.9824 C.3     1  UNL111     -0.0327
      8 C         121.6049  154.1597  145.7949 C.3     1  UNL111     -0.0355
      9 C         121.0438  154.5542  148.2071 C.3     1  UNL111     -0.0355
     10 C         123.4371  154.4013  147.5110 C.3     1  UNL111     -0.0146
     11 C         116.8148  154.7542  146.5174 C.2     1  UNL111      0.1521
     12 C         117.4843  152.3835  146.3746 C.3     1  UNL111     -0.0004
     13 C         115.3756  154.4274  146.0886 C.3     1  UNL111      0.0357
     14 C         124.4726  153.6200  146.7490 C.3     1  UNL111     -0.0704
     15 C         117.7902  151.5441  145.2980 C.3     1  UNL111     -0.0401
     16 C         116.8758  151.8481  147.5202 C.3     1  UNL111     -0.0401
     17 C         115.2859  154.4080  144.5630 C.3     1  UNL111     -0.0428
     18 C         114.3960  155.4558  146.6555 C.3     1  UNL111     -0.0428
     19 C         124.7402  152.2804  147.0743 C.3     1  UNL111     -0.0746
     20 C         125.1654  154.2114  145.6810 C.3     1  UNL111     -0.0746
     21 C         117.5022  150.1796  145.3707 C.3     1  UNL111     -0.0167
     22 C         116.5908  150.4837  147.5905 C.3     1  UNL111     -0.0167
     23 C         116.9095  149.6618  146.5166 C.3     1  UNL111      0.0844
     24 C         125.6715  151.5477  146.3371 C.3     1  UNL111     -0.0834
     25 C         126.0958  153.4743  144.9477 C.3     1  UNL111     -0.0834
     26 C         126.3454  152.1434  145.2734 C.3     1  UNL111     -0.0861
     27 H         122.0276  152.9209  147.3932 H       1  UNL111      0.1349
     28 H         119.2422  155.2628  146.3315 H       1  UNL111      0.0863
     29 H         119.9191  153.7437  144.5289 H       1  UNL111      0.0551
     30 H         120.2867  152.4780  145.7045 H       1  UNL111      0.0551
     31 H         119.6569  152.9128  148.2358 H       1  UNL111      0.0551
     32 H         118.9506  154.4634  148.6702 H       1  UNL111      0.0551
     33 H         122.3301  153.6588  145.1477 H       1  UNL111      0.0744
     34 H         121.6263  155.2385  145.6047 H       1  UNL111      0.0744
     35 H         121.0672  155.6396  148.0585 H       1  UNL111      0.0744
     36 H         121.3942  154.3172  149.2172 H       1  UNL111      0.0744
     37 H         123.6144  154.2776  148.5862 H       1  UNL111      0.0876
     38 H         123.4796  155.4725  147.2812 H       1  UNL111      0.0876
     39 H         115.0750  153.4513  146.4757 H       1  UNL111      0.0783
     40 H         118.2166  151.9421  144.3814 H       1  UNL111      0.1023
     41 H         116.6259  152.4826  148.3678 H       1  UNL111      0.1023
     42 H         115.5881  155.3715  144.1373 H       1  UNL111      0.0331
     43 H         114.2627  154.1964  144.2352 H       1  UNL111      0.0331
     44 H         115.9380  153.6435  144.1304 H       1  UNL111      0.0331
     45 H         114.6016  156.4618  146.2730 H       1  UNL111      0.0331
     46 H         114.4635  155.4947  147.7481 H       1  UNL111      0.0331
     47 H         113.3654  155.1979  146.3897 H       1  UNL111      0.0331
     48 H         124.2430  151.7908  147.9093 H       1  UNL111      0.0924
     49 H         124.9964  155.2511  145.4055 H       1  UNL111      0.0924
     50 H         117.7223  149.5177  144.5381 H       1  UNL111      0.1104
     51 H         116.1196  150.0566  148.4711 H       1  UNL111      0.1104
     52 H         125.8828  150.5113  146.5941 H       1  UNL111      0.0880
     53 H         126.6347  153.9374  144.1229 H       1  UNL111      0.0880
     54 H         127.0758  151.5721  144.7034 H       1  UNL111      0.0874
@<TRIPOS>UNITY_ATOM_ATTR
3 1
charge 1
@<TRIPOS>BOND
     1     1    23    1
     2     2    11    2
     3     3     8    1
     4     3     9    1
     5     3    10    1
     6     4     5    1
     7     4    11   am
     8     4    12    1
     9     5     6    1
    10     5     7    1
    11     6     8    1
    12     7     9    1
    13    10    14    1
    14    11    13    1
    15    12    15   ar
    16    12    16   ar
    17    13    17    1
    18    13    18    1
    19    14    19   ar
    20    14    20   ar
    21    15    21   ar
    22    16    22   ar
    23    19    24   ar
    24    20    25   ar
    25    21    23   ar
    26    22    23   ar
    27    24    26   ar
    28    25    26   ar
    29     3    27    1
    30     5    28    1
    31     6    29    1
    32     6    30    1
    33     7    31    1
    34     7    32    1
    35     8    33    1
    36     8    34    1
    37     9    35    1
    38     9    36    1
    39    10    37    1
    40    10    38    1
    41    13    39    1
    42    15    40    1
    43    16    41    1
    44    17    42    1
    45    17    43    1
    46    17    44    1
    47    18    45    1
    48    18    46    1
    49    18    47    1
    50    19    48    1
    51    20    49    1
    52    21    50    1
    53    22    51    1
    54    24    52    1
    55    25    53    1
    56    26    54    1
@<TRIPOS>MOLECULE
13653630
 55 57 0 0 0
SMALL
GASTEIGER

@<TRIPOS>ATOM
      1 CL        115.1393  148.1990  146.6152 Cl      1  UNL111     -0.1310
      2 O         117.1824  155.8409  145.8365 O.2     1  UNL111     -0.3692
      3 O         114.4165  155.8716  145.9334 O.3     1  UNL111     -0.4394
      4 N         121.6488  153.2597  146.7391 N.4     1  UNL111      0.4267
      5 N         117.3465  153.6973  146.6385 N.am    1  UNL111     -0.2826
      6 C         118.7977  153.8968  146.8172 C.3     1  UNL111      0.0191
      7 C         119.5525  153.7115  145.4923 C.3     1  UNL111     -0.0328
      8 C         119.4650  153.0601  147.9142 C.3     1  UNL111     -0.0328
      9 C         121.0156  154.0912  145.6431 C.3     1  UNL111     -0.0370
     10 C         120.9313  153.4410  148.0615 C.3     1  UNL111     -0.0370
     11 C         123.1417  153.5395  146.9004 C.3     1  UNL111     -0.0358
     12 C         123.9515  152.9610  145.7367 C.3     1  UNL111     -0.0312
     13 C         116.8190  152.3832  146.6331 C.3     1  UNL111     -0.0012
     14 C         116.6098  154.7899  146.1397 C.2     1  UNL111      0.1824
     15 C         125.4282  153.1161  145.9903 C.3     1  UNL111     -0.0753
     16 C         115.0814  154.6183  146.0293 C.3     1  UNL111      0.1005
     17 C         116.5211  151.7522  145.4195 C.3     1  UNL111     -0.0470
     18 C         116.5762  151.7209  147.8402 C.3     1  UNL111     -0.0470
     19 C         126.0919  154.2943  145.6200 C.3     1  UNL111     -0.0811
     20 C         126.1501  152.0995  146.6314 C.3     1  UNL111     -0.0811
     21 C         116.0013  150.4557  145.4150 C.3     1  UNL111     -0.0435
     22 C         116.0545  150.4249  147.8335 C.3     1  UNL111     -0.0435
     23 C         115.7731  149.7963  146.6216 C.3     1  UNL111      0.0183
     24 C         127.4531  154.4498  145.8847 C.3     1  UNL111     -0.0857
     25 C         127.5112  152.2596  146.8945 C.3     1  UNL111     -0.0857
     26 C         128.1615  153.4339  146.5225 C.3     1  UNL111     -0.0868
     27 C         113.0103  155.7195  145.7973 C.3     1  UNL111      0.0023
     28 H         121.5608  152.2669  146.4790 H       1  UNL111      0.1323
     29 H         118.9255  154.9461  147.1197 H       1  UNL111      0.0865
     30 H         119.1059  154.3274  144.7032 H       1  UNL111      0.0551
     31 H         119.4735  152.6705  145.1540 H       1  UNL111      0.0551
     32 H         119.3965  151.9895  147.6866 H       1  UNL111      0.0551
     33 H         118.9590  153.2229  148.8726 H       1  UNL111      0.0551
     34 H         121.5499  153.8835  144.7125 H       1  UNL111      0.0741
     35 H         121.1410  155.1463  145.9100 H       1  UNL111      0.0741
     36 H         121.0562  154.4861  148.3664 H       1  UNL111      0.0741
     37 H         121.4192  152.7869  148.7917 H       1  UNL111      0.0741
     38 H         123.4495  153.0664  147.8404 H       1  UNL111      0.0751
     39 H         123.2657  154.6242  146.9988 H       1  UNL111      0.0751
     40 H         123.7002  153.4578  144.7930 H       1  UNL111      0.0589
     41 H         123.7126  151.8994  145.5955 H       1  UNL111      0.0589
     42 H         114.8695  154.0324  145.1289 H       1  UNL111      0.1315
     43 H         114.7132  154.0913  146.9159 H       1  UNL111      0.1315
     44 H         116.6948  152.2543  144.4702 H       1  UNL111      0.1009
     45 H         116.7580  152.2113  148.7932 H       1  UNL111      0.1009
     46 H         125.5658  155.1005  145.1132 H       1  UNL111      0.0893
     47 H         125.6701  151.1687  146.9258 H       1  UNL111      0.0893
     48 H         115.7721  149.9663  144.4708 H       1  UNL111      0.1005
     49 H         115.8575  149.9148  148.7739 H       1  UNL111      0.1005
     50 H         127.9673  155.3617  145.5884 H       1  UNL111      0.0876
     51 H         128.0706  151.4657  147.3848 H       1  UNL111      0.0876
     52 H         129.2238  153.5547  146.7231 H       1  UNL111      0.0874
     53 H         112.5606  156.7139  145.7324 H       1  UNL111      0.0825
     54 H         112.5947  155.2039  146.6684 H       1  UNL111      0.0825
     55 H         112.7715  155.1673  144.8833 H       1  UNL111      0.0825
@<TRIPOS>UNITY_ATOM_ATTR
4 1
charge 1
@<TRIPOS>BOND
     1     1    23    1
     2     2    14    2
     3     3    16    1
     4     3    27    1
     5     4     9    1
     6     4    10    1
     7     4    11    1
     8     5     6    1
     9     5    13    1
    10     5    14   am
    11     6     7    1
    12     6     8    1
    13     7     9    1
    14     8    10    1
    15    11    12    1
    16    12    15    1
    17    13    17   ar
    18    13    18   ar
    19    14    16    1
    20    15    19   ar
    21    15    20   ar
    22    17    21   ar
    23    18    22   ar
    24    19    24   ar
    25    20    25   ar
    26    21    23   ar
    27    22    23   ar
    28    24    26   ar
    29    25    26   ar
    30     4    28    1
    31     6    29    1
    32     7    30    1
    33     7    31    1
    34     8    32    1
    35     8    33    1
    36     9    34    1
    37     9    35    1
    38    10    36    1
    39    10    37    1
    40    11    38    1
    41    11    39    1
    42    12    40    1
    43    12    41    1
    44    16    42    1
    45    16    43    1
    46    17    44    1
    47    18    45    1
    48    19    46    1
    49    20    47    1
    50    21    48    1
    51    22    49    1
    52    24    50    1
    53    25    51    1
    54    26    52    1
    55    27    53    1
    56    27    54    1
    57    27    55    1
@<TRIPOS>MOLECULE
137699902
 34 37 0 0 0
SMALL
GASTEIGER

@<TRIPOS>ATOM
      1 O         117.3200  155.6814  147.0140 O.2     1  UNL111     -0.3451
      2 O         114.7894  155.8420  145.8956 O.2     1  UNL111     -0.4780
      3 N         121.9745  153.5922  148.0391 N.4     1  UNL111      0.4556
      4 N         117.5043  153.4259  146.5376 N.am    1  UNL111     -0.2468
      5 C         118.8795  153.4079  146.7437 C.3     1  UNL111      0.1118
      6 C         119.6027  152.3197  147.3575 C.3     1  UNL111      0.0836
      7 C         119.7497  154.5564  146.7092 C.3     1  UNL111      0.0836
      8 C         121.0262  152.4496  147.9540 C.3     1  UNL111      0.0649
      9 C         121.1651  154.6142  147.3254 C.3     1  UNL111      0.0649
     10 C         123.2514  153.3289  147.4088 C.3     1  UNL111      0.0661
     11 C         124.6093  153.0523  146.7570 C.3     1  UNL111      0.0776
     12 C         116.7411  152.2047  146.5435 C.3     1  UNL111      0.0038
     13 C         116.8421  154.6871  146.4593 C.2     1  UNL111      0.2513
     14 C         125.8776  152.7961  146.1591 C.2     1  UNL111     -0.0058
     15 C         117.2000  151.0676  145.8600 C.3     1  UNL111     -0.0544
     16 C         115.5341  152.1194  147.2569 C.3     1  UNL111     -0.0544
     17 C         115.6284  154.7843  145.6618 C.2     1  UNL111      0.1876
     18 C         127.0313  153.3359  146.7227 C.2     1  UNL111     -0.0052
     19 C         125.9598  152.0049  145.0160 C.2     1  UNL111     -0.0052
     20 C         116.4626  149.8810  145.8783 C.3     1  UNL111     -0.0786
     21 C         114.8016  150.9301  147.2760 C.3     1  UNL111     -0.0786
     22 C         115.1272  154.0355  144.6146 C.2     1  UNL111      0.1055
     23 C         115.2652  149.8132  146.5860 C.3     1  UNL111     -0.0844
     24 C         128.2713  153.0834  146.1406 C.2     1  UNL111     -0.0019
     25 C         127.2006  151.7532  144.4348 C.2     1  UNL111     -0.0019
     26 C         113.9158  154.6424  144.2139 C.2     1  UNL111      0.0966
     27 C         128.3556  152.2922  144.9972 C.2     1  UNL111     -0.0007
     28 C         113.7492  155.7437  145.0218 C.2     1  UNL111      0.1517
     29 H         122.0972  153.8737  149.0196 H       1  UNL111      0.1720
     30 H         118.1093  151.0948  145.2652 H       1  UNL111      0.0994
     31 H         115.1536  152.9611  147.8326 H       1  UNL111      0.0994
     32 H         116.8145  149.0096  145.3299 H       1  UNL111      0.0890
     33 H         113.8681  150.8741  147.8326 H       1  UNL111      0.0890
     34 H         114.6896  148.8898  146.5973 H       1  UNL111      0.0876
@<TRIPOS>UNITY_ATOM_ATTR
3 1
charge 1
@<TRIPOS>BOND
     1     1    13    2
     2     2    17    1
     3     2    28    1
     4     3     8    1
     5     3     9    1
     6     3    10    1
     7     4     5    1
     8     4    12    1
     9     4    13   am
    10     5     6    1
    11     5     7    1
    12     6     8    1
    13     7     9    1
    14    10    11    1
    15    11    14    1
    16    12    15   ar
    17    12    16   ar
    18    13    17    1
    19    14    18    2
    20    14    19    1
    21    15    20   ar
    22    16    21   ar
    23    17    22    2
    24    18    24    1
    25    19    25    2
    26    20    23   ar
    27    21    23   ar
    28    22    26    1
    29    24    27    2
    30    25    27    1
    31    26    28    2
    32     3    29    1
    33    15    30    1
    34    16    31    1
    35    20    32    1
    36    21    33    1
    37    23    34    1
@<TRIPOS>MOLECULE
137699965
 34 37 0 0 0
SMALL
GASTEIGER

@<TRIPOS>ATOM
      1 O         115.2536  154.3624  147.8646 O.3     1  UNL111     -0.3709
      2 O         117.3866  155.6096  145.2780 O.2     1  UNL111     -0.3613
      3 N         121.9804  153.1045  144.7237 N.4     1  UNL111      0.4556
      4 N         117.4846  153.4405  146.1251 N.am    1  UNL111     -0.2561
      5 C         118.8601  153.3300  145.9547 C.3     1  UNL111      0.1094
      6 C         119.5494  152.1065  145.6225 C.3     1  UNL111      0.0832
      7 C         119.7739  154.4255  145.7446 C.3     1  UNL111      0.0832
      8 C         120.9871  152.0446  145.0477 C.3     1  UNL111      0.0648
      9 C         121.2017  154.2897  145.1671 C.3     1  UNL111      0.0648
     10 C         123.2397  152.9470  145.4195 C.3     1  UNL111      0.0661
     11 C         115.5971  154.9673  146.6469 C.3     1  UNL111      0.1935
     12 C         116.8797  154.7043  145.9431 C.2     1  UNL111      0.2142
     13 C         114.7531  156.1041  146.4874 C.3     1  UNL111      0.1007
     14 C         116.6773  152.2719  146.3611 C.3     1  UNL111      0.0015
     15 C         113.6655  156.4837  147.4896 C.3     1  UNL111      0.0818
     16 C         124.5860  152.7767  146.1306 C.3     1  UNL111      0.0776
     17 C         114.2751  155.2367  148.1255 C.3     1  UNL111      0.1270
     18 C         117.0765  151.3022  147.2936 C.3     1  UNL111     -0.0547
     19 C         115.4868  152.0668  145.6430 C.3     1  UNL111     -0.0547
     20 C         125.8483  152.6153  146.7760 C.2     1  UNL111     -0.0058
     21 C         116.2970  150.1627  147.5119 C.3     1  UNL111     -0.0786
     22 C         114.7124  150.9245  145.8612 C.3     1  UNL111     -0.0786
     23 C         125.9025  152.2159  148.1098 C.2     1  UNL111     -0.0052
     24 C         127.0244  152.8527  146.0667 C.2     1  UNL111     -0.0052
     25 C         115.1168  149.9749  146.7954 C.3     1  UNL111     -0.0844
     26 C         127.1370  152.0541  148.7346 C.2     1  UNL111     -0.0019
     27 C         128.2573  152.6901  146.6942 C.2     1  UNL111     -0.0019
     28 C         128.3131  152.2908  148.0271 C.2     1  UNL111     -0.0007
     29 H         122.1236  153.1482  143.7074 H       1  UNL111      0.1720
     30 H         117.9685  151.4352  147.8999 H       1  UNL111      0.0994
     31 H         115.1546  152.7705  144.8822 H       1  UNL111      0.0994
     32 H         116.6021  149.4246  148.2525 H       1  UNL111      0.0890
     33 H         113.7930  150.7742  145.2996 H       1  UNL111      0.0890
     34 H         114.5088  149.0896  146.9692 H       1  UNL111      0.0876
@<TRIPOS>UNITY_ATOM_ATTR
3 1
charge 1
@<TRIPOS>BOND
     1     1    11    1
     2     1    17    1
     3     2    12    2
     4     3     8    1
     5     3     9    1
     6     3    10    1
     7     4     5    1
     8     4    12   am
     9     4    14    1
    10     5     6    1
    11     5     7    1
    12     6     8    1
    13     7     9    1
    14    10    16    1
    15    11    12    1
    16    11    13    1
    17    13    15    1
    18    14    18   ar
    19    14    19   ar
    20    15    17    1
    21    16    20    1
    22    18    21   ar
    23    19    22   ar
    24    20    23    2
    25    20    24    1
    26    21    25   ar
    27    22    25   ar
    28    23    26    1
    29    24    27    2
    30    26    28    2
    31    27    28    1
    32     3    29    1
    33    18    30    1
    34    19    31    1
    35    21    32    1
    36    22    33    1
    37    25    34    1
@<TRIPOS>MOLECULE
137700467
 52 54 0 0 0
SMALL
GASTEIGER

@<TRIPOS>ATOM
      1 O         115.6465  155.2209  145.8267 O.3     1  UNL111     -0.5049
      2 O         117.8568  155.6037  146.2062 O.2     1  UNL111     -0.2889
      3 N         121.3010  153.1793  146.6690 N.4     1  UNL111      0.4268
      4 N         117.0482  153.4382  146.3350 N.am    1  UNL111     -0.2407
      5 C         118.4076  152.8769  146.4920 C.3     1  UNL111      0.0309
      6 C         119.2761  153.0997  145.2453 C.3     1  UNL111     -0.0307
      7 C         119.0944  153.3836  147.7722 C.3     1  UNL111     -0.0307
      8 C         120.6841  152.5630  145.4352 C.3     1  UNL111     -0.0368
      9 C         120.5025  152.8336  147.9076 C.3     1  UNL111     -0.0368
     10 C         122.7691  152.8103  146.8489 C.3     1  UNL111     -0.0358
     11 C         123.6621  153.5560  145.8531 C.3     1  UNL111     -0.0312
     12 C         115.9301  152.5442  146.4348 C.3     1  UNL111      0.0098
     13 C         116.9066  154.8250  146.1507 C.2     1  UNL111      0.3095
     14 C         125.1146  153.2577  146.1194 C.3     1  UNL111     -0.0753
     15 C         114.7653  152.9147  147.1221 C.3     1  UNL111     -0.0529
     16 C         115.9850  151.2573  145.8771 C.3     1  UNL111     -0.0529
     17 C         125.7315  152.1468  145.5267 C.3     1  UNL111     -0.0811
     18 C         125.8580  154.0661  146.9907 C.3     1  UNL111     -0.0811
     19 C         113.6890  152.0306  147.2450 C.3     1  UNL111     -0.0784
     20 C         114.9075  150.3736  145.9970 C.3     1  UNL111     -0.0784
     21 C         113.7604  150.7604  146.6825 C.3     1  UNL111     -0.0844
     22 C         127.0679  151.8528  145.8003 C.3     1  UNL111     -0.0857
     23 C         127.1941  153.7681  147.2617 C.3     1  UNL111     -0.0857
     24 C         115.4959  156.6205  145.5816 C.3     1  UNL111      0.0533
     25 C         127.7978  152.6619  146.6680 C.3     1  UNL111     -0.0868
     26 H         121.2604  154.2060  146.5665 H       1  UNL111      0.1323
     27 H         118.3277  151.7915  146.6291 H       1  UNL111      0.0894
     28 H         119.3442  154.1621  144.9888 H       1  UNL111      0.0553
     29 H         118.8125  152.6086  144.3810 H       1  UNL111      0.0553
     30 H         118.5022  153.0892  148.6474 H       1  UNL111      0.0553
     31 H         119.1500  154.4761  147.7993 H       1  UNL111      0.0553
     32 H         120.6945  151.4750  145.5646 H       1  UNL111      0.0741
     33 H         121.3024  152.8305  144.5746 H       1  UNL111      0.0741
     34 H         121.0050  153.2919  148.7658 H       1  UNL111      0.0741
     35 H         120.5134  151.7435  148.0181 H       1  UNL111      0.0741
     36 H         122.8493  151.7214  146.7514 H       1  UNL111      0.0751
     37 H         123.0429  153.0891  147.8733 H       1  UNL111      0.0751
     38 H         123.4902  154.6375  145.9223 H       1  UNL111      0.0589
     39 H         123.4264  153.2767  144.8202 H       1  UNL111      0.0589
     40 H         114.6786  153.8856  147.6035 H       1  UNL111      0.0996
     41 H         116.8394  150.9289  145.2937 H       1  UNL111      0.0996
     42 H         125.1881  151.5030  144.8385 H       1  UNL111      0.0893
     43 H         125.4145  154.9408  147.4618 H       1  UNL111      0.0893
     44 H         112.7945  152.3365  147.7830 H       1  UNL111      0.0891
     45 H         114.9567  149.3866  145.5428 H       1  UNL111      0.0891
     46 H         112.9198  150.0763  146.7731 H       1  UNL111      0.0876
     47 H         127.5464  150.9953  145.3320 H       1  UNL111      0.0876
     48 H         127.7706  154.4021  147.9320 H       1  UNL111      0.0876
     49 H         114.4452  156.8119  145.3473 H       1  UNL111      0.1118
     50 H         116.1041  156.9257  144.7246 H       1  UNL111      0.1118
     51 H         115.7630  157.1962  146.4732 H       1  UNL111      0.1118
     52 H         128.8412  152.4348  146.8758 H       1  UNL111      0.0874
@<TRIPOS>UNITY_ATOM_ATTR
3 1
charge 1
@<TRIPOS>BOND
     1     1    13    1
     2     1    24    1
     3     2    13    2
     4     3     8    1
     5     3     9    1
     6     3    10    1
     7     4     5    1
     8     4    12    1
     9     4    13   am
    10     5     6    1
    11     5     7    1
    12     6     8    1
    13     7     9    1
    14    10    11    1
    15    11    14    1
    16    12    15   ar
    17    12    16   ar
    18    14    17   ar
    19    14    18   ar
    20    15    19   ar
    21    16    20   ar
    22    17    22   ar
    23    18    23   ar
    24    19    21   ar
    25    20    21   ar
    26    22    25   ar
    27    23    25   ar
    28     3    26    1
    29     5    27    1
    30     6    28    1
    31     6    29    1
    32     7    30    1
    33     7    31    1
    34     8    32    1
    35     8    33    1
    36     9    34    1
    37     9    35    1
    38    10    36    1
    39    10    37    1
    40    11    38    1
    41    11    39    1
    42    15    40    1
    43    16    41    1
    44    17    42    1
    45    18    43    1
    46    19    44    1
    47    20    45    1
    48    21    46    1
    49    22    47    1
    50    23    48    1
    51    24    49    1
    52    24    50    1
    53    24    51    1
    54    25    52    1
@<TRIPOS>MOLECULE
137699876
 35 37 0 0 0
SMALL
GASTEIGER

@<TRIPOS>ATOM
      1 F         113.2684  149.5910  146.3588 F       1  UNL111     -0.2792
      2 O         118.2689  155.3913  145.9091 O.2     1  UNL111     -0.3815
      3 N         121.7095  154.0325  145.8760 N.4     1  UNL111      0.4556
      4 N         117.3881  153.3557  146.5528 N.am    1  UNL111     -0.2596
      5 C         118.6771  152.8536  146.7763 C.3     1  UNL111      0.1085
      6 C         119.4250  152.4935  145.5809 C.3     1  UNL111      0.0831
      7 C         119.5944  153.6203  147.6032 C.3     1  UNL111      0.0831
      8 C         120.8023  153.0802  145.1860 C.3     1  UNL111      0.0648
      9 C         120.9675  154.1698  147.1541 C.3     1  UNL111      0.0648
     10 C         123.0616  153.5474  146.0349 C.3     1  UNL111      0.0661
     11 C         124.5015  153.0520  146.1970 C.3     1  UNL111      0.0776
     12 C         116.2962  152.4173  146.5180 C.2     1  UNL111      0.0451
     13 C         117.2786  154.7367  146.2707 C.2     1  UNL111      0.1551
     14 C         115.9328  155.4282  146.4570 C.3     1  UNL111      0.0359
     15 C         125.8461  152.6028  146.3442 C.2     1  UNL111     -0.0058
     16 C         116.5012  151.1031  146.9657 C.2     1  UNL111      0.0378
     17 C         115.0404  152.7291  145.9962 C.2     1  UNL111      0.0378
     18 C         116.0609  156.9371  146.6840 C.3     1  UNL111     -0.0412
     19 C         126.2244  151.9062  147.4892 C.2     1  UNL111     -0.0052
     20 C         126.7786  152.8676  145.3441 C.2     1  UNL111     -0.0052
     21 C         115.4883  150.1469  146.9205 C.2     1  UNL111      0.0655
     22 C         114.0133  151.7878  145.9423 C.2     1  UNL111      0.0655
     23 C         116.6536  157.2740  148.0455 C.3     1  UNL111     -0.0653
     24 C         114.2482  150.5017  146.4084 C.2     1  UNL111      0.1273
     25 C         127.5404  151.4726  147.6336 C.2     1  UNL111     -0.0019
     26 C         128.0941  152.4335  145.4898 C.2     1  UNL111     -0.0019
     27 C         128.4746  151.7365  146.6344 C.2     1  UNL111     -0.0007
     28 H         121.6862  154.9352  145.3835 H       1  UNL111      0.1720
     29 H         115.3972  154.9892  147.3047 H       1  UNL111      0.0746
     30 H         115.3528  155.2767  145.5404 H       1  UNL111      0.0746
     31 H         115.0632  157.3873  146.6187 H       1  UNL111      0.0369
     32 H         116.6696  157.3971  145.8971 H       1  UNL111      0.0369
     33 H         116.0442  156.8546  148.8523 H       1  UNL111      0.0262
     34 H         116.6924  158.3596  148.1806 H       1  UNL111      0.0262
     35 H         117.6717  156.8865  148.1479 H       1  UNL111      0.0262
@<TRIPOS>UNITY_ATOM_ATTR
3 1
charge 1
@<TRIPOS>BOND
     1     1    24    1
     2     2    13    2
     3     3     8    1
     4     3     9    1
     5     3    10    1
     6     4     5    1
     7     4    12    1
     8     4    13   am
     9     5     6    1
    10     5     7    1
    11     6     8    1
    12     7     9    1
    13    10    11    1
    14    11    15    1
    15    12    16    2
    16    12    17    1
    17    13    14    1
    18    14    18    1
    19    15    19    2
    20    15    20    1
    21    16    21    1
    22    17    22    2
    23    18    23    1
    24    19    25    1
    25    20    26    2
    26    21    24    2
    27    22    24    1
    28    25    27    2
    29    26    27    1
    30     3    28    1
    31    14    29    1
    32    14    30    1
    33    18    31    1
    34    18    32    1
    35    23    33    1
    36    23    34    1
    37    23    35    1
@<TRIPOS>MOLECULE
137699978
 34 37 0 0 0
SMALL
GASTEIGER

@<TRIPOS>ATOM
      1 O         117.3330  155.7172  145.8383 O.2     1  UNL111     -0.3598
      2 O         113.6557  155.6824  147.8070 O.2     1  UNL111     -0.4831
      3 N         122.0037  153.6247  144.8791 N.4     1  UNL111      0.4556
      4 N         117.5014  153.4426  146.2648 N.am    1  UNL111     -0.2553
      5 C         118.8841  153.4205  146.1117 C.3     1  UNL111      0.1098
      6 C         119.7554  154.5666  146.1863 C.3     1  UNL111      0.0833
      7 C         119.6218  152.3411  145.4988 C.3     1  UNL111      0.0833
      8 C         121.1836  154.6331  145.6000 C.3     1  UNL111      0.0649
      9 C         121.0570  152.4792  144.9329 C.3     1  UNL111      0.0649
     10 C         123.2776  153.3546  145.5121 C.3     1  UNL111      0.0661
     11 C         124.6396  153.0735  146.1538 C.3     1  UNL111      0.0776
     12 C         116.7357  152.2245  146.2006 C.3     1  UNL111      0.0018
     13 C         116.8462  154.7024  146.3407 C.2     1  UNL111      0.2229
     14 C         125.9158  152.8158  146.7340 C.2     1  UNL111     -0.0058
     15 C         117.1601  151.0732  146.8827 C.3     1  UNL111     -0.0546
     16 C         115.5630  152.1565  145.4307 C.3     1  UNL111     -0.0546
     17 C         115.6007  154.7965  147.0889 C.2     1  UNL111      0.1591
     18 C         126.0298  151.9202  147.7944 C.2     1  UNL111     -0.0052
     19 C         127.0463  153.4575  146.2334 C.2     1  UNL111     -0.0052
     20 C         116.4215  149.8895  146.8079 C.3     1  UNL111     -0.0786
     21 C         114.8296  150.9700  145.3551 C.3     1  UNL111     -0.0786
     22 C         115.0683  153.9754  148.1194 C.2     1  UNL111      0.1175
     23 C         114.7084  155.8432  146.9624 C.2     1  UNL111      0.1722
     24 C         115.2581  149.8388  146.0444 C.3     1  UNL111     -0.0844
     25 C         127.2792  151.6666  148.3560 C.2     1  UNL111     -0.0019
     26 C         128.2949  153.2029  146.7959 C.2     1  UNL111     -0.0019
     27 C         113.8776  154.5416  148.5140 C.2     1  UNL111      0.1543
     28 C         128.4110  152.3076  147.8569 C.2     1  UNL111     -0.0007
     29 H         122.1346  153.9232  143.9045 H       1  UNL111      0.1720
     30 H         118.0407  151.0867  147.5194 H       1  UNL111      0.0994
     31 H         115.2111  153.0099  144.8548 H       1  UNL111      0.0994
     32 H         116.7453  149.0070  147.3558 H       1  UNL111      0.0890
     33 H         113.9224  150.9274  144.7556 H       1  UNL111      0.0890
     34 H         114.6812  148.9178  145.9894 H       1  UNL111      0.0876
@<TRIPOS>UNITY_ATOM_ATTR
3 1
charge 1
@<TRIPOS>BOND
     1     1    13    2
     2     2    23    1
     3     2    27    1
     4     3     8    1
     5     3     9    1
     6     3    10    1
     7     4     5    1
     8     4    12    1
     9     4    13   am
    10     5     6    1
    11     5     7    1
    12     6     8    1
    13     7     9    1
    14    10    11    1
    15    11    14    1
    16    12    15   ar
    17    12    16   ar
    18    13    17    1
    19    14    18    2
    20    14    19    1
    21    15    20   ar
    22    16    21   ar
    23    17    22    1
    24    17    23    2
    25    18    25    1
    26    19    26    2
    27    20    24   ar
    28    21    24   ar
    29    22    27    2
    30    25    28    2
    31    26    28    1
    32     3    29    1
    33    15    30    1
    34    16    31    1
    35    20    32    1
    36    21    33    1
    37    24    34    1
@<TRIPOS>MOLECULE
137700088
 55 58 0 0 0
SMALL
GASTEIGER

@<TRIPOS>ATOM
      1 CL        112.7716  149.9768  146.4600 Cl      1  UNL111     -0.1310
      2 O         118.4650  155.6031  145.8120 O.2     1  UNL111     -0.3806
      3 N         117.5446  153.5336  146.2833 N.am    1  UNL111     -0.2894
      4 N         121.7766  153.0333  146.0984 N.4     1  UNL111      0.4267
      5 C         116.1876  155.6334  146.3411 C.3     1  UNL111      0.0421
      6 C         115.4574  155.5237  147.6610 C.3     1  UNL111     -0.0308
      7 C         116.1646  156.7962  147.3131 C.3     1  UNL111     -0.0308
      8 C         118.8747  152.8822  146.3189 C.3     1  UNL111      0.0178
      9 C         119.7490  153.4168  147.4638 C.3     1  UNL111     -0.0330
     10 C         119.5832  152.9634  144.9558 C.3     1  UNL111     -0.0330
     11 C         117.4786  154.9271  146.0977 C.2     1  UNL111      0.1541
     12 C         121.1399  152.8083  147.4490 C.3     1  UNL111     -0.0370
     13 C         120.9757  152.3628  145.0042 C.3     1  UNL111     -0.0370
     14 C         123.2372  152.6013  146.0479 C.3     1  UNL111     -0.0358
     15 C         116.3909  152.6930  146.3349 C.3     1  UNL111     -0.0026
     16 C         124.1409  153.5890  146.7917 C.3     1  UNL111     -0.0312
     17 C         115.3357  152.8647  145.4284 C.3     1  UNL111     -0.0472
     18 C         116.3084  151.6525  147.2718 C.3     1  UNL111     -0.0472
     19 C         125.5874  153.1938  146.6465 C.3     1  UNL111     -0.0753
     20 C         114.2160  152.0270  145.4672 C.3     1  UNL111     -0.0435
     21 C         115.1875  150.8166  147.3141 C.3     1  UNL111     -0.0435
     22 C         114.1454  151.0078  146.4116 C.3     1  UNL111      0.0183
     23 C         126.1732  152.2986  147.5528 C.3     1  UNL111     -0.0811
     24 C         126.3558  153.6881  145.5832 C.3     1  UNL111     -0.0811
     25 C         127.5038  151.9079  147.3977 C.3     1  UNL111     -0.0857
     26 C         127.6859  153.2943  145.4318 C.3     1  UNL111     -0.0857
     27 C         128.2587  152.4042  146.3374 C.3     1  UNL111     -0.0868
     28 H         121.7564  154.0473  145.9018 H       1  UNL111      0.1323
     29 H         115.6021  155.7967  145.4416 H       1  UNL111      0.0811
     30 H         115.8816  154.9147  148.4509 H       1  UNL111      0.0406
     31 H         114.3730  155.5210  147.6391 H       1  UNL111      0.0406
     32 H         115.5629  157.6605  147.0536 H       1  UNL111      0.0406
     33 H         117.0744  157.0405  147.8501 H       1  UNL111      0.0406
     34 H         118.7359  151.8101  146.5092 H       1  UNL111      0.0863
     35 H         119.2663  153.2015  148.4249 H       1  UNL111      0.0550
     36 H         119.8523  154.5058  147.4168 H       1  UNL111      0.0550
     37 H         119.6692  153.9962  144.6042 H       1  UNL111      0.0550
     38 H         118.9856  152.4381  144.2005 H       1  UNL111      0.0550
     39 H         121.7640  153.2900  148.2060 H       1  UNL111      0.0741
     40 H         121.1175  151.7283  147.6324 H       1  UNL111      0.0741
     41 H         120.9566  151.2878  145.2151 H       1  UNL111      0.0741
     42 H         121.4945  152.5386  144.0560 H       1  UNL111      0.0741
     43 H         123.5211  152.5642  144.9895 H       1  UNL111      0.0751
     44 H         123.2949  151.5869  146.4593 H       1  UNL111      0.0751
     45 H         123.8908  153.6333  147.8574 H       1  UNL111      0.0589
     46 H         123.9964  154.6049  146.4032 H       1  UNL111      0.0589
     47 H         115.3780  153.6224  144.6504 H       1  UNL111      0.1009
     48 H         117.0856  151.5009  148.0154 H       1  UNL111      0.1009
     49 H         113.4079  152.1714  144.7536 H       1  UNL111      0.1005
     50 H         115.1280  150.0257  148.0582 H       1  UNL111      0.1005
     51 H         125.6100  151.9024  148.3948 H       1  UNL111      0.0893
     52 H         125.9366  154.3909  144.8661 H       1  UNL111      0.0893
     53 H         127.9584  151.2202  148.1076 H       1  UNL111      0.0876
     54 H         128.2820  153.6861  144.6103 H       1  UNL111      0.0876
     55 H         129.2977  152.1032  146.2212 H       1  UNL111      0.0874
@<TRIPOS>UNITY_ATOM_ATTR
4 1
charge 1
@<TRIPOS>BOND
     1     1    22    1
     2     2    11    2
     3     3     8    1
     4     3    11   am
     5     3    15    1
     6     4    12    1
     7     4    13    1
     8     4    14    1
     9     5     6    1
    10     5     7    1
    11     5    11    1
    12     6     7    1
    13     8     9    1
    14     8    10    1
    15     9    12    1
    16    10    13    1
    17    14    16    1
    18    15    17   ar
    19    15    18   ar
    20    16    19    1
    21    17    20   ar
    22    18    21   ar
    23    19    23   ar
    24    19    24   ar
    25    20    22   ar
    26    21    22   ar
    27    23    25   ar
    28    24    26   ar
    29    25    27   ar
    30    26    27   ar
    31     4    28    1
    32     5    29    1
    33     6    30    1
    34     6    31    1
    35     7    32    1
    36     7    33    1
    37     8    34    1
    38     9    35    1
    39     9    36    1
    40    10    37    1
    41    10    38    1
    42    12    39    1
    43    12    40    1
    44    13    41    1
    45    13    42    1
    46    14    43    1
    47    14    44    1
    48    16    45    1
    49    16    46    1
    50    17    47    1
    51    18    48    1
    52    20    49    1
    53    21    50    1
    54    23    51    1
    55    24    52    1
    56    25    53    1
    57    26    54    1
    58    27    55    1
@<TRIPOS>MOLECULE
165361450
 58 61 0 0 0
SMALL
GASTEIGER

@<TRIPOS>ATOM
      1 O         117.9593  155.1113  146.4347 O.2     1  UNL111     -0.3819
      2 N         117.4407  152.8761  146.4092 N.am    1  UNL111     -0.2904
      3 N         121.7066  153.0501  146.6828 N.4     1  UNL111      0.4267
      4 C         115.3776  156.0331  145.8519 C.3     1  UNL111     -0.0329
      5 C         115.0846  157.0121  146.9599 C.3     1  UNL111     -0.0554
      6 C         113.9935  156.6105  146.0063 C.3     1  UNL111     -0.0554
      7 C         115.6173  154.5799  146.1573 C.3     1  UNL111      0.0387
      8 C         118.8568  152.4607  146.5018 C.3     1  UNL111      0.0176
      9 C         119.6740  152.8839  145.2751 C.3     1  UNL111     -0.0330
     10 C         119.5034  152.9384  147.8116 C.3     1  UNL111     -0.0330
     11 C         117.0933  154.2333  146.3634 C.2     1  UNL111      0.1516
     12 C         121.1309  152.4754  145.4093 C.3     1  UNL111     -0.0370
     13 C         120.9633  152.5372  147.8975 C.3     1  UNL111     -0.0370
     14 C         123.2037  152.8030  146.8265 C.3     1  UNL111     -0.0358
     15 C         116.4779  151.8369  146.4737 C.3     1  UNL111     -0.0053
     16 C         124.0182  153.6760  145.8680 C.3     1  UNL111     -0.0312
     17 C         116.4037  150.8932  145.4443 C.3     1  UNL111     -0.0556
     18 C         115.6378  151.7215  147.5853 C.3     1  UNL111     -0.0556
     19 C         125.4935  153.4593  146.0854 C.3     1  UNL111     -0.0753
     20 C         115.4699  149.8584  145.5128 C.3     1  UNL111     -0.0787
     21 C         114.7151  150.6772  147.6571 C.3     1  UNL111     -0.0787
     22 C         114.6281  149.7503  146.6191 C.3     1  UNL111     -0.0844
     23 C         126.2049  154.2603  146.9894 C.3     1  UNL111     -0.0811
     24 C         126.1653  152.4279  145.4133 C.3     1  UNL111     -0.0811
     25 C         127.5634  154.0333  147.2145 C.3     1  UNL111     -0.0857
     26 C         127.5237  152.2046  145.6415 C.3     1  UNL111     -0.0857
     27 C         128.2215  153.0057  146.5423 C.3     1  UNL111     -0.0868
     28 H         121.5690  154.0734  146.6594 H       1  UNL111      0.1323
     29 H         115.9662  156.3797  145.0089 H       1  UNL111      0.0446
     30 H         115.4923  158.0133  146.8722 H       1  UNL111      0.0342
     31 H         115.0250  156.6500  147.9799 H       1  UNL111      0.0342
     32 H         113.1985  155.9767  146.3833 H       1  UNL111      0.0342
     33 H         113.6626  157.3437  145.2786 H       1  UNL111      0.0342
     34 H         115.2329  153.9910  145.3169 H       1  UNL111      0.0762
     35 H         115.0630  154.3017  147.0585 H       1  UNL111      0.0762
     36 H         118.8818  151.3611  146.5318 H       1  UNL111      0.0863
     37 H         119.6282  153.9666  145.1173 H       1  UNL111      0.0550
     38 H         119.2501  152.4266  144.3728 H       1  UNL111      0.0550
     39 H         118.9586  152.5197  148.6667 H       1  UNL111      0.0550
     40 H         119.4408  154.0263  147.9175 H       1  UNL111      0.0550
     41 H         121.2496  151.3869  145.4519 H       1  UNL111      0.0741
     42 H         121.7051  152.8690  144.5670 H       1  UNL111      0.0741
     43 H         121.4255  152.9868  148.7828 H       1  UNL111      0.0741
     44 H         121.0914  151.4497  147.9323 H       1  UNL111      0.0741
     45 H         123.3758  151.7322  146.6675 H       1  UNL111      0.0751
     46 H         123.4668  153.0472  147.8626 H       1  UNL111      0.0751
     47 H         123.7741  154.7353  146.0163 H       1  UNL111      0.0589
     48 H         123.7797  153.4521  144.8226 H       1  UNL111      0.0589
     49 H         117.0370  150.9745  144.5655 H       1  UNL111      0.0993
     50 H         115.7045  152.4236  148.4127 H       1  UNL111      0.0993
     51 H         115.3891  149.1396  144.7005 H       1  UNL111      0.0890
     52 H         114.0624  150.5842  148.5222 H       1  UNL111      0.0890
     53 H         113.9000  148.9433  146.6717 H       1  UNL111      0.0876
     54 H         125.7182  155.0744  147.5223 H       1  UNL111      0.0893
     55 H         125.6472  151.7926  144.6983 H       1  UNL111      0.0893
     56 H         128.1146  154.6619  147.9107 H       1  UNL111      0.0876
     57 H         128.0439  151.4091  145.1123 H       1  UNL111      0.0876
     58 H         129.2818  152.8342  146.7149 H       1  UNL111      0.0874
@<TRIPOS>UNITY_ATOM_ATTR
3 1
charge 1
@<TRIPOS>BOND
     1     1    11    2
     2     2     8    1
     3     2    11   am
     4     2    15    1
     5     3    12    1
     6     3    13    1
     7     3    14    1
     8     4     5    1
     9     4     6    1
    10     4     7    1
    11     5     6    1
    12     7    11    1
    13     8     9    1
    14     8    10    1
    15     9    12    1
    16    10    13    1
    17    14    16    1
    18    15    17   ar
    19    15    18   ar
    20    16    19    1
    21    17    20   ar
    22    18    21   ar
    23    19    23   ar
    24    19    24   ar
    25    20    22   ar
    26    21    22   ar
    27    23    25   ar
    28    24    26   ar
    29    25    27   ar
    30    26    27   ar
    31     3    28    1
    32     4    29    1
    33     5    30    1
    34     5    31    1
    35     6    32    1
    36     6    33    1
    37     7    34    1
    38     7    35    1
    39     8    36    1
    40     9    37    1
    41     9    38    1
    42    10    39    1
    43    10    40    1
    44    12    41    1
    45    12    42    1
    46    13    43    1
    47    13    44    1
    48    14    45    1
    49    14    46    1
    50    16    47    1
    51    16    48    1
    52    17    49    1
    53    18    50    1
    54    20    51    1
    55    21    52    1
    56    22    53    1
    57    23    54    1
    58    24    55    1
    59    25    56    1
    60    26    57    1
    61    27    58    1
@<TRIPOS>MOLECULE
165362282
 69 71 0 0 0
SMALL
GASTEIGER

@<TRIPOS>ATOM
      1 O         115.5333  155.4307  145.2032 O.2     1  UNL111     -0.3824
      2 O         124.9997  151.0586  144.3022 O.2     1  UNL111     -0.5662
      3 O         126.6490  154.0055  147.6834 O.2     1  UNL111     -0.5662
      4 O         127.1308  152.2515  145.6960 O.2     1  UNL111     -0.5562
      5 N         119.5346  154.2780  146.0858 N.4     1  UNL111      0.4271
      6 N         115.3491  153.4061  146.2726 N.am    1  UNL111     -0.2907
      7 C         116.8176  153.2965  146.4362 C.3     1  UNL111      0.0176
      8 C         117.3862  154.4317  147.3053 C.3     1  UNL111     -0.0328
      9 C         117.5461  153.1840  145.0893 C.3     1  UNL111     -0.0328
     10 C         118.8928  154.3185  147.4549 C.3     1  UNL111     -0.0365
     11 C         119.0499  153.0927  145.2760 C.3     1  UNL111     -0.0365
     12 C         121.0712  154.3997  146.0729 C.3     1  UNL111     -0.0360
     13 C         121.7307  153.4057  147.0519 C.3     1  UNL111     -0.0239
     14 C         121.4543  155.8530  146.3612 C.3     1  UNL111     -0.0589
     15 C         114.5550  152.4141  146.9211 C.3     1  UNL111     -0.0054
     16 C         114.8132  154.4974  145.5731 C.2     1  UNL111      0.1497
     17 C         123.1687  153.1110  146.7012 C.3     1  UNL111     -0.0366
     18 C         113.3312  154.4687  145.2136 C.3     1  UNL111      0.0336
     19 C         113.5182  152.7788  147.7876 C.3     1  UNL111     -0.0556
     20 C         114.8386  151.0534  146.7401 C.3     1  UNL111     -0.0556
     21 C         124.2249  153.7226  147.4002 C.3     1  UNL111     -0.0031
     22 C         123.4617  152.2138  145.6658 C.3     1  UNL111     -0.0031
     23 C         113.0168  155.3717  144.0302 C.3     1  UNL111     -0.0446
     24 C         124.7852  151.9200  145.3458 C.3     1  UNL111      0.1087
     25 C         125.5588  153.4503  147.0675 C.3     1  UNL111      0.1087
     26 C         112.7648  151.8014  148.4426 C.3     1  UNL111     -0.0787
     27 C         114.0820  150.0771  147.3925 C.3     1  UNL111     -0.0787
     28 C         125.8314  152.5596  146.0171 C.3     1  UNL111      0.1483
     29 C         113.0447  150.4519  148.2425 C.3     1  UNL111     -0.0844
     30 C         125.4153  149.7786  144.7840 C.3     1  UNL111      0.0335
     31 C         126.4286  154.8104  148.8327 C.3     1  UNL111      0.0335
     32 C         127.6217  153.1575  144.7091 C.3     1  UNL111      0.0360
     33 H         119.1929  155.1120  145.5804 H       1  UNL111      0.1335
     34 H         117.0345  152.3709  146.9868 H       1  UNL111      0.0863
     35 H         116.9186  154.4043  148.2972 H       1  UNL111      0.0551
     36 H         117.1556  155.4172  146.8892 H       1  UNL111      0.0551
     37 H         117.3288  154.0400  144.4418 H       1  UNL111      0.0551
     38 H         117.1914  152.2976  144.5496 H       1  UNL111      0.0551
     39 H         119.2863  155.1872  147.9892 H       1  UNL111      0.0743
     40 H         119.1717  153.4039  147.9883 H       1  UNL111      0.0743
     41 H         119.3368  152.1791  145.8062 H       1  UNL111      0.0743
     42 H         119.5538  153.1240  144.3046 H       1  UNL111      0.0743
     43 H         121.3668  154.1814  145.0394 H       1  UNL111      0.0798
     44 H         121.1982  152.4470  147.0575 H       1  UNL111      0.0608
     45 H         121.6698  153.7819  148.0812 H       1  UNL111      0.0608
     46 H         121.2342  156.1397  147.3941 H       1  UNL111      0.0404
     47 H         120.9217  156.5411  145.6959 H       1  UNL111      0.0404
     48 H         122.5259  156.0082  146.1983 H       1  UNL111      0.0404
     49 H         112.7515  154.8147  146.0738 H       1  UNL111      0.0734
     50 H         113.0274  153.4479  144.9610 H       1  UNL111      0.0734
     51 H         113.3031  153.8223  148.0009 H       1  UNL111      0.0993
     52 H         115.6196  150.7289  146.0588 H       1  UNL111      0.0993
     53 H         123.9913  154.4118  148.2062 H       1  UNL111      0.1167
     54 H         122.6722  151.7175  145.1074 H       1  UNL111      0.1167
     55 H         113.2480  156.4174  144.2585 H       1  UNL111      0.0319
     56 H         111.9548  155.3070  143.7742 H       1  UNL111      0.0319
     57 H         113.6011  155.0823  143.1504 H       1  UNL111      0.0319
     58 H         111.9615  152.0933  149.1158 H       1  UNL111      0.0890
     59 H         114.2934  149.0224  147.2311 H       1  UNL111      0.0890
     60 H         112.4533  149.6923  148.7494 H       1  UNL111      0.0876
     61 H         125.5927  149.1378  143.9151 H       1  UNL111      0.1074
     62 H         124.6234  149.3194  145.3864 H       1  UNL111      0.1074
     63 H         126.3452  149.8316  145.3582 H       1  UNL111      0.1074
     64 H         127.4055  155.1089  149.2252 H       1  UNL111      0.1074
     65 H         125.9106  154.2491  149.6171 H       1  UNL111      0.1074
     66 H         125.8817  155.7224  148.5723 H       1  UNL111      0.1074
     67 H         128.6529  152.8735  144.4784 H       1  UNL111      0.1078
     68 H         127.6299  154.1878  145.0807 H       1  UNL111      0.1078
     69 H         127.0379  153.0919  143.7845 H       1  UNL111      0.1078
@<TRIPOS>UNITY_ATOM_ATTR
5 1
charge 1
@<TRIPOS>BOND
     1     1    16    2
     2     2    24    1
     3     2    30    1
     4     3    25    1
     5     3    31    1
     6     4    28    1
     7     4    32    1
     8     5    10    1
     9     5    11    1
    10     5    12    1
    11     6     7    1
    12     6    15    1
    13     6    16   am
    14     7     8    1
    15     7     9    1
    16     8    10    1
    17     9    11    1
    18    12    13    1
    19    12    14    1
    20    13    17    1
    21    15    19   ar
    22    15    20   ar
    23    16    18    1
    24    17    21   ar
    25    17    22   ar
    26    18    23    1
    27    19    26   ar
    28    20    27   ar
    29    21    25   ar
    30    22    24   ar
    31    24    28   ar
    32    25    28   ar
    33    26    29   ar
    34    27    29   ar
    35     5    33    1
    36     7    34    1
    37     8    35    1
    38     8    36    1
    39     9    37    1
    40     9    38    1
    41    10    39    1
    42    10    40    1
    43    11    41    1
    44    11    42    1
    45    12    43    1
    46    13    44    1
    47    13    45    1
    48    14    46    1
    49    14    47    1
    50    14    48    1
    51    18    49    1
    52    18    50    1
    53    19    51    1
    54    20    52    1
    55    21    53    1
    56    22    54    1
    57    23    55    1
    58    23    56    1
    59    23    57    1
    60    26    58    1
    61    27    59    1
    62    29    60    1
    63    30    61    1
    64    30    62    1
    65    30    63    1
    66    31    64    1
    67    31    65    1
    68    31    66    1
    69    32    67    1
    70    32    68    1
    71    32    69    1
@<TRIPOS>MOLECULE
14802204
 59 62 0 0 0
SMALL
GASTEIGER

@<TRIPOS>ATOM
      1 O         117.1433  149.8457  147.2320 O.2     1  UNL111     -0.3822
      2 N         121.7935  152.2995  146.2151 N.4     1  UNL111      0.4267
      3 N         117.5155  151.9606  146.4379 N.am    1  UNL111     -0.2802
      4 N         116.6808  154.2788  147.8270 N.pl3   1  UNL111     -0.2836
      5 C         118.9551  151.8462  146.7302 C.3     1  UNL111      0.0194
      6 C         119.6982  151.1384  145.5872 C.3     1  UNL111     -0.0328
      7 C         119.6533  153.1627  147.0957 C.3     1  UNL111     -0.0328
      8 C         121.1719  150.9513  145.9119 C.3     1  UNL111     -0.0370
      9 C         121.1207  152.9408  147.4080 C.3     1  UNL111     -0.0370
     10 C         123.3067  152.1980  146.3788 C.3     1  UNL111     -0.0358
     11 C         117.0293  153.1119  145.7530 C.3     1  UNL111      0.0353
     12 C         123.9664  153.5680  146.1860 C.3     1  UNL111     -0.0312
     13 C         116.6771  150.8944  146.7791 C.2     1  UNL111      0.1512
     14 C         116.6265  154.2507  146.4750 C.3     1  UNL111      0.0458
     15 C         115.1816  151.0734  146.5416 C.3     1  UNL111      0.0337
     16 C         125.4629  153.4845  146.3210 C.3     1  UNL111     -0.0753
     17 C         116.9668  153.0677  144.3523 C.3     1  UNL111     -0.0440
     18 C         116.1736  155.3646  145.7353 C.3     1  UNL111     -0.0116
     19 C         116.5171  154.1745  143.6429 C.3     1  UNL111     -0.0722
     20 C         114.3679  149.9002  147.0620 C.3     1  UNL111     -0.0446
     21 C         116.1263  155.3202  144.3309 C.3     1  UNL111     -0.0623
     22 C         126.0599  153.4916  147.5900 C.3     1  UNL111     -0.0811
     23 C         126.2777  153.3942  145.1845 C.3     1  UNL111     -0.0811
     24 C         115.7716  156.5097  146.4357 C.3     1  UNL111     -0.0568
     25 C         127.4470  153.4143  147.7175 C.3     1  UNL111     -0.0857
     26 C         127.6649  153.3186  145.3167 C.3     1  UNL111     -0.0857
     27 C         116.2687  155.3948  148.4687 C.3     1  UNL111     -0.0187
     28 C         115.8157  156.5266  147.8235 C.3     1  UNL111     -0.0555
     29 C         128.2486  153.3284  146.5817 C.3     1  UNL111     -0.0868
     30 H         121.6272  152.8975  145.3933 H       1  UNL111      0.1323
     31 H         119.0437  151.2002  147.6153 H       1  UNL111      0.0865
     32 H         119.6027  151.7160  144.6596 H       1  UNL111      0.0551
     33 H         119.2469  150.1588  145.3895 H       1  UNL111      0.0551
     34 H         119.1805  153.6077  147.9772 H       1  UNL111      0.0551
     35 H         119.5710  153.8903  146.2791 H       1  UNL111      0.0551
     36 H         121.3280  150.3071  146.7844 H       1  UNL111      0.0741
     37 H         121.6992  150.5323  145.0486 H       1  UNL111      0.0741
     38 H         121.6062  153.9004  147.6006 H       1  UNL111      0.0741
     39 H         121.2668  152.2810  148.2705 H       1  UNL111      0.0741
     40 H         123.6662  151.5014  145.6125 H       1  UNL111      0.0751
     41 H         123.5034  151.7659  147.3665 H       1  UNL111      0.0751
     42 H         123.5964  154.2973  146.9149 H       1  UNL111      0.0589
     43 H         123.7057  153.9728  145.1997 H       1  UNL111      0.0589
     44 H         115.0034  151.1795  145.4666 H       1  UNL111      0.0734
     45 H         114.8434  151.9842  147.0458 H       1  UNL111      0.0734
     46 H         117.2517  152.1680  143.8128 H       1  UNL111      0.1016
     47 H         116.4577  154.1451  142.5569 H       1  UNL111      0.0900
     48 H         114.6566  148.9683  146.5650 H       1  UNL111      0.0319
     49 H         113.3015  150.0673  146.8811 H       1  UNL111      0.0319
     50 H         114.5154  149.7674  148.1389 H       1  UNL111      0.0319
     51 H         115.7695  156.1795  143.7645 H       1  UNL111      0.0939
     52 H         125.4591  153.5733  148.4931 H       1  UNL111      0.0893
     53 H         125.8503  153.3971  144.1841 H       1  UNL111      0.0893
     54 H         115.4126  157.3897  145.9063 H       1  UNL111      0.0953
     55 H         127.9075  153.4309  148.7030 H       1  UNL111      0.0876
     56 H         128.2959  153.2609  144.4324 H       1  UNL111      0.0876
     57 H         116.3140  155.3504  149.5538 H       1  UNL111      0.1352
     58 H         115.4970  157.3981  148.3851 H       1  UNL111      0.0984
     59 H         129.3305  153.2774  146.6822 H       1  UNL111      0.0874
@<TRIPOS>UNITY_ATOM_ATTR
2 1
charge 1
@<TRIPOS>BOND
     1     1    13    2
     2     2     8    1
     3     2     9    1
     4     2    10    1
     5     3     5    1
     6     3    11    1
     7     3    13   am
     8     4    14   ar
     9     4    27   ar
    10     5     6    1
    11     5     7    1
    12     6     8    1
    13     7     9    1
    14    10    12    1
    15    11    14   ar
    16    11    17   ar
    17    12    16    1
    18    13    15    1
    19    14    18   ar
    20    15    20    1
    21    16    22   ar
    22    16    23   ar
    23    17    19   ar
    24    18    21   ar
    25    18    24   ar
    26    19    21   ar
    27    22    25   ar
    28    23    26   ar
    29    24    28   ar
    30    25    29   ar
    31    26    29   ar
    32    27    28   ar
    33     2    30    1
    34     5    31    1
    35     6    32    1
    36     6    33    1
    37     7    34    1
    38     7    35    1
    39     8    36    1
    40     8    37    1
    41     9    38    1
    42     9    39    1
    43    10    40    1
    44    10    41    1
    45    12    42    1
    46    12    43    1
    47    15    44    1
    48    15    45    1
    49    17    46    1
    50    19    47    1
    51    20    48    1
    52    20    49    1
    53    20    50    1
    54    21    51    1
    55    22    52    1
    56    23    53    1
    57    24    54    1
    58    25    55    1
    59    26    56    1
    60    27    57    1
    61    28    58    1
    62    29    59    1
@<TRIPOS>MOLECULE
137700017
 55 58 0 0 0
SMALL
GASTEIGER

@<TRIPOS>ATOM
      1 F         113.1468  150.1010  146.5224 F       1  UNL111     -0.2904
      2 O         118.3871  155.6255  145.8153 O.2     1  UNL111     -0.3806
      3 N         117.5264  153.5266  146.2678 N.am    1  UNL111     -0.2892
      4 N         121.7699  153.1011  146.0198 N.4     1  UNL111      0.4267
      5 C         116.1233  155.5927  146.3986 C.3     1  UNL111      0.0421
      6 C         115.4315  155.4447  147.7355 C.3     1  UNL111     -0.0308
      7 C         116.0989  156.7391  147.3901 C.3     1  UNL111     -0.0308
      8 C         118.8718  152.9074  146.2680 C.3     1  UNL111      0.0178
      9 C         119.7499  153.4378  147.4111 C.3     1  UNL111     -0.0330
     10 C         119.5626  153.0360  144.8994 C.3     1  UNL111     -0.0330
     11 C         117.4236  154.9212  146.1101 C.2     1  UNL111      0.1541
     12 C         121.1462  152.8441  147.3717 C.3     1  UNL111     -0.0370
     13 C         120.9632  152.4511  144.9171 C.3     1  UNL111     -0.0370
     14 C         123.2311  152.6718  145.9551 C.3     1  UNL111     -0.0358
     15 C         116.3940  152.6585  146.3417 C.3     1  UNL111     -0.0004
     16 C         124.1405  153.6735  146.6729 C.3     1  UNL111     -0.0312
     17 C         115.3067  152.8203  145.4700 C.3     1  UNL111     -0.0401
     18 C         116.3647  151.6022  147.2664 C.3     1  UNL111     -0.0401
     19 C         125.5751  153.2172  146.6185 C.3     1  UNL111     -0.0753
     20 C         114.2087  151.9575  145.5325 C.3     1  UNL111     -0.0167
     21 C         115.2651  150.7420  147.3300 C.3     1  UNL111     -0.0167
     22 C         114.1972  150.9281  146.4631 C.3     1  UNL111      0.0844
     23 C         126.0950  152.3946  147.6283 C.3     1  UNL111     -0.0811
     24 C         126.3975  153.5784  145.5425 C.3     1  UNL111     -0.0811
     25 C         127.4139  151.9442  147.5623 C.3     1  UNL111     -0.0857
     26 C         127.7160  153.1252  145.4804 C.3     1  UNL111     -0.0857
     27 C         128.2230  152.3081  146.4885 C.3     1  UNL111     -0.0868
     28 H         121.7451  154.1188  145.8449 H       1  UNL111      0.1323
     29 H         115.5104  155.7562  145.5177 H       1  UNL111      0.0811
     30 H         115.8909  154.8334  148.5037 H       1  UNL111      0.0406
     31 H         114.3473  155.4161  147.7422 H       1  UNL111      0.0406
     32 H         115.4703  157.5926  147.1611 H       1  UNL111      0.0406
     33 H         117.0168  156.9965  147.9069 H       1  UNL111      0.0406
     34 H         118.7607  151.8281  146.4343 H       1  UNL111      0.0863
     35 H         119.2805  153.2031  148.3742 H       1  UNL111      0.0550
     36 H         119.8395  154.5286  147.3769 H       1  UNL111      0.0550
     37 H         119.6325  154.0792  144.5763 H       1  UNL111      0.0550
     38 H         118.9632  152.5241  144.1365 H       1  UNL111      0.0550
     39 H         121.7730  153.3155  148.1328 H       1  UNL111      0.0741
     40 H         121.1349  151.7604  147.5336 H       1  UNL111      0.0741
     41 H         120.9585  151.3707  145.0996 H       1  UNL111      0.0741
     42 H         121.4698  152.6582  143.9686 H       1  UNL111      0.0741
     43 H         123.5045  152.6198  144.8947 H       1  UNL111      0.0751
     44 H         123.2953  151.6632  146.3796 H       1  UNL111      0.0751
     45 H         123.8491  153.8013  147.7210 H       1  UNL111      0.0589
     46 H         124.0507  154.6651  146.2116 H       1  UNL111      0.0589
     47 H         115.3078  153.5898  144.7028 H       1  UNL111      0.1023
     48 H         117.1676  151.4573  147.9832 H       1  UNL111      0.1023
     49 H         113.3672  152.0779  144.8564 H       1  UNL111      0.1104
     50 H         115.2283  149.9347  148.0556 H       1  UNL111      0.1104
     51 H         125.4884  152.1023  148.4826 H       1  UNL111      0.0893
     52 H         126.0306  154.2224  144.7461 H       1  UNL111      0.0893
     53 H         127.8170  151.3137  148.3519 H       1  UNL111      0.0876
     54 H         128.3547  153.4140  144.6483 H       1  UNL111      0.0876
     55 H         129.2530  151.9612  146.4413 H       1  UNL111      0.0874
@<TRIPOS>UNITY_ATOM_ATTR
4 1
charge 1
@<TRIPOS>BOND
     1     1    22    1
     2     2    11    2
     3     3     8    1
     4     3    11   am
     5     3    15    1
     6     4    12    1
     7     4    13    1
     8     4    14    1
     9     5     6    1
    10     5     7    1
    11     5    11    1
    12     6     7    1
    13     8     9    1
    14     8    10    1
    15     9    12    1
    16    10    13    1
    17    14    16    1
    18    15    17   ar
    19    15    18   ar
    20    16    19    1
    21    17    20   ar
    22    18    21   ar
    23    19    23   ar
    24    19    24   ar
    25    20    22   ar
    26    21    22   ar
    27    23    25   ar
    28    24    26   ar
    29    25    27   ar
    30    26    27   ar
    31     4    28    1
    32     5    29    1
    33     6    30    1
    34     6    31    1
    35     7    32    1
    36     7    33    1
    37     8    34    1
    38     9    35    1
    39     9    36    1
    40    10    37    1
    41    10    38    1
    42    12    39    1
    43    12    40    1
    44    13    41    1
    45    13    42    1
    46    14    43    1
    47    14    44    1
    48    16    45    1
    49    16    46    1
    50    17    47    1
    51    18    48    1
    52    20    49    1
    53    21    50    1
    54    23    51    1
    55    24    52    1
    56    25    53    1
    57    26    54    1
    58    27    55    1
@<TRIPOS>MOLECULE
165365116
 58 60 0 0 0
SMALL
GASTEIGER

@<TRIPOS>ATOM
      1 O         118.2177  155.2109  145.8113 O.2     1  UNL111     -0.3686
      2 N         121.7258  153.1221  146.7323 N.4     1  UNL111      0.4267
      3 N         117.4675  153.1398  146.5126 N.am    1  UNL111     -0.2829
      4 C         118.8499  152.6607  146.7521 C.3     1  UNL111      0.0193
      5 C         119.6708  152.6264  145.4514 C.3     1  UNL111     -0.0327
      6 C         119.5506  153.4517  147.8677 C.3     1  UNL111     -0.0327
      7 C         121.1082  152.2095  145.6989 C.3     1  UNL111     -0.0370
      8 C         120.9931  153.0168  148.0510 C.3     1  UNL111     -0.0370
      9 C         123.2200  152.8898  146.9155 C.3     1  UNL111     -0.0358
     10 C         124.0244  153.4530  145.7403 C.3     1  UNL111     -0.0312
     11 C         116.4292  152.1527  146.4979 C.3     1  UNL111     -0.0034
     12 C         117.2795  154.4753  146.1290 C.2     1  UNL111      0.1807
     13 C         125.5022  153.2952  145.9872 C.3     1  UNL111     -0.0753
     14 C         115.9043  155.0718  146.1822 C.2     1  UNL111      0.0076
     15 C         116.3508  151.1864  147.5113 C.3     1  UNL111     -0.0553
     16 C         115.4917  152.1078  145.4575 C.3     1  UNL111     -0.0553
     17 C         126.2282  154.3090  146.6279 C.3     1  UNL111     -0.0811
     18 C         126.1628  152.1172  145.6106 C.3     1  UNL111     -0.0811
     19 C         115.3510  150.2100  147.4915 C.3     1  UNL111     -0.0787
     20 C         114.4943  151.1292  145.4366 C.3     1  UNL111     -0.0787
     21 C         115.5004  155.8114  144.9435 C.3     1  UNL111     -0.0223
     22 C         115.1933  154.9727  147.3224 C.2     1  UNL111     -0.0845
     23 C         114.4235  150.1819  146.4539 C.3     1  UNL111     -0.0844
     24 C         127.5902  154.1463  146.8847 C.3     1  UNL111     -0.0857
     25 C         127.5249  151.9590  145.8691 C.3     1  UNL111     -0.0857
     26 C         128.2374  152.9720  146.5068 C.3     1  UNL111     -0.0868
     27 C         113.8390  155.5481  147.5904 C.3     1  UNL111     -0.0484
     28 H         121.6093  154.0947  146.4043 H       1  UNL111      0.1323
     29 H         118.8097  151.6200  147.0974 H       1  UNL111      0.0867
     30 H         119.6792  153.5994  144.9506 H       1  UNL111      0.0551
     31 H         119.2062  151.9289  144.7435 H       1  UNL111      0.0551
     32 H         119.0053  153.3172  148.8100 H       1  UNL111      0.0551
     33 H         119.5421  154.5279  147.6669 H       1  UNL111      0.0551
     34 H         121.1808  151.1823  146.0733 H       1  UNL111      0.0741
     35 H         121.6854  152.2983  144.7751 H       1  UNL111      0.0741
     36 H         121.4966  153.6764  148.7655 H       1  UNL111      0.0741
     37 H         121.0724  151.9796  148.3953 H       1  UNL111      0.0741
     38 H         123.3716  151.8126  147.0508 H       1  UNL111      0.0751
     39 H         123.5099  153.4007  147.8412 H       1  UNL111      0.0751
     40 H         123.7876  154.5139  145.5902 H       1  UNL111      0.0589
     41 H         123.7662  152.9492  144.8024 H       1  UNL111      0.0589
     42 H         117.0299  151.2030  148.3585 H       1  UNL111      0.0993
     43 H         115.5363  152.8074  144.6278 H       1  UNL111      0.0993
     44 H         125.7503  155.2397  146.9262 H       1  UNL111      0.0893
     45 H         125.6332  151.3138  145.1031 H       1  UNL111      0.0893
     46 H         115.2864  149.4773  148.2928 H       1  UNL111      0.0890
     47 H         113.7734  151.1049  144.6223 H       1  UNL111      0.0890
     48 H         115.8532  155.2873  144.0484 H       1  UNL111      0.0440
     49 H         115.9335  156.8166  144.9424 H       1  UNL111      0.0440
     50 H         114.4153  155.8996  144.8443 H       1  UNL111      0.0440
     51 H         115.6183  154.4374  148.1701 H       1  UNL111      0.0799
     52 H         113.6428  149.4245  146.4393 H       1  UNL111      0.0876
     53 H         128.1526  154.9384  147.3745 H       1  UNL111      0.0876
     54 H         128.0366  151.0475  145.5676 H       1  UNL111      0.0876
     55 H         129.3005  152.8497  146.7022 H       1  UNL111      0.0874
     56 H         113.4651  156.1771  146.7797 H       1  UNL111      0.0364
     57 H         113.8755  156.1637  148.4949 H       1  UNL111      0.0364
     58 H         113.1204  154.7398  147.7572 H       1  UNL111      0.0364
@<TRIPOS>UNITY_ATOM_ATTR
2 1
charge 1
@<TRIPOS>BOND
     1     1    12    2
     2     2     7    1
     3     2     8    1
     4     2     9    1
     5     3     4    1
     6     3    11    1
     7     3    12   am
     8     4     5    1
     9     4     6    1
    10     5     7    1
    11     6     8    1
    12     9    10    1
    13    10    13    1
    14    11    15   ar
    15    11    16   ar
    16    12    14    1
    17    13    17   ar
    18    13    18   ar
    19    14    21    1
    20    14    22    2
    21    15    19   ar
    22    16    20   ar
    23    17    24   ar
    24    18    25   ar
    25    19    23   ar
    26    20    23   ar
    27    22    27    1
    28    24    26   ar
    29    25    26   ar
    30     2    28    1
    31     4    29    1
    32     5    30    1
    33     5    31    1
    34     6    32    1
    35     6    33    1
    36     7    34    1
    37     7    35    1
    38     8    36    1
    39     8    37    1
    40     9    38    1
    41     9    39    1
    42    10    40    1
    43    10    41    1
    44    15    42    1
    45    16    43    1
    46    17    44    1
    47    18    45    1
    48    19    46    1
    49    20    47    1
    50    21    48    1
    51    21    49    1
    52    21    50    1
    53    22    51    1
    54    23    52    1
    55    24    53    1
    56    25    54    1
    57    26    55    1
    58    27    56    1
    59    27    57    1
    60    27    58    1
@<TRIPOS>MOLECULE
165361426
 57 60 0 0 0
SMALL
GASTEIGER

@<TRIPOS>ATOM
      1 O         116.7744  155.5030  145.8693 O.2     1  UNL111     -0.3824
      2 O         128.1095  152.9795  146.8024 O.2     1  UNL111     -0.5416
      3 N         120.3241  153.4439  146.7693 N.4     1  UNL111      0.4267
      4 N         116.0657  153.4007  146.4693 N.am    1  UNL111     -0.2907
      5 C         117.4543  152.9434  146.7168 C.3     1  UNL111      0.0176
      6 C         118.1211  153.7068  147.8711 C.3     1  UNL111     -0.0330
      7 C         118.2982  152.9738  145.4315 C.3     1  UNL111     -0.0330
      8 C         119.5654  153.2838  148.0684 C.3     1  UNL111     -0.0370
      9 C         119.7360  152.5648  145.6899 C.3     1  UNL111     -0.0370
     10 C         121.8158  153.2150  146.9744 C.3     1  UNL111     -0.0357
     11 C         122.6410  153.8411  145.8455 C.3     1  UNL111     -0.0302
     12 C         115.0449  152.4047  146.5048 C.3     1  UNL111     -0.0054
     13 C         115.8351  154.7375  146.1101 C.2     1  UNL111      0.1497
     14 C         124.1176  153.6588  146.1006 C.3     1  UNL111     -0.0664
     15 C         114.3961  155.2434  146.0973 C.3     1  UNL111      0.0336
     16 C         114.1640  152.2421  145.4290 C.3     1  UNL111     -0.0556
     17 C         114.9432  151.5360  147.5997 C.3     1  UNL111     -0.0556
     18 C         124.7783  152.5126  145.6116 C.3     1  UNL111     -0.0506
     19 C         124.8256  154.6120  146.8521 C.3     1  UNL111     -0.0635
     20 C         114.3250  156.7523  146.2788 C.3     1  UNL111     -0.0446
     21 C         126.1481  152.3414  145.8860 C.3     1  UNL111      0.0144
     22 C         113.1857  151.2452  145.4576 C.3     1  UNL111     -0.0787
     23 C         113.9620  150.5421  147.6287 C.3     1  UNL111     -0.0787
     24 C         126.1876  154.4560  147.1353 C.3     1  UNL111     -0.0234
     25 C         126.8009  153.3117  146.6352 C.3     1  UNL111      0.0631
     26 C         113.0831  150.3982  146.5582 C.3     1  UNL111     -0.0844
     27 C         127.1330  151.3654  145.5790 C.3     1  UNL111     -0.0113
     28 C         128.3041  151.7998  146.1574 C.3     1  UNL111      0.0317
     29 H         120.2048  154.4271  146.4755 H       1  UNL111      0.1323
     30 H         117.4236  151.8886  147.0216 H       1  UNL111      0.0863
     31 H         117.5602  153.5351  148.7979 H       1  UNL111      0.0550
     32 H         118.1014  154.7886  147.7041 H       1  UNL111      0.0550
     33 H         118.3024  153.9673  144.9723 H       1  UNL111      0.0550
     34 H         117.8560  152.3004  144.6869 H       1  UNL111      0.0550
     35 H         120.0461  153.9245  148.8152 H       1  UNL111      0.0741
     36 H         119.6514  152.2363  148.3781 H       1  UNL111      0.0741
     37 H         119.8142  151.5249  146.0260 H       1  UNL111      0.0741
     38 H         120.3293  152.6959  144.7814 H       1  UNL111      0.0741
     39 H         121.9745  152.1338  147.0608 H       1  UNL111      0.0751
     40 H         122.0818  153.6825  147.9297 H       1  UNL111      0.0751
     41 H         122.4140  154.9110  145.7562 H       1  UNL111      0.0590
     42 H         122.3914  153.3971  144.8756 H       1  UNL111      0.0590
     43 H         113.8254  154.7703  146.9025 H       1  UNL111      0.0734
     44 H         113.9404  154.9902  145.1361 H       1  UNL111      0.0734
     45 H         114.2459  152.8558  144.5360 H       1  UNL111      0.0993
     46 H         115.5925  151.6441  148.4636 H       1  UNL111      0.0993
     47 H         124.2564  151.7652  145.0207 H       1  UNL111      0.0974
     48 H         124.3275  155.5056  147.2261 H       1  UNL111      0.0930
     49 H         114.8013  157.0570  147.2166 H       1  UNL111      0.0319
     50 H         113.2823  157.0842  146.2990 H       1  UNL111      0.0319
     51 H         114.8313  157.2736  145.4596 H       1  UNL111      0.0319
     52 H         112.5061  151.1249  144.6166 H       1  UNL111      0.0890
     53 H         113.8745  149.8847  148.4909 H       1  UNL111      0.0890
     54 H         126.7473  155.1862  147.7086 H       1  UNL111      0.1118
     55 H         112.3172  149.6259  146.5809 H       1  UNL111      0.0876
     56 H         127.0105  150.4580  145.0051 H       1  UNL111      0.1144
     57 H         129.3111  151.4069  146.1988 H       1  UNL111      0.1749
@<TRIPOS>UNITY_ATOM_ATTR
3 1
charge 1
@<TRIPOS>BOND
     1     1    13    2
     2     2    25   ar
     3     2    28   ar
     4     3     8    1
     5     3     9    1
     6     3    10    1
     7     4     5    1
     8     4    12    1
     9     4    13   am
    10     5     6    1
    11     5     7    1
    12     6     8    1
    13     7     9    1
    14    10    11    1
    15    11    14    1
    16    12    16   ar
    17    12    17   ar
    18    13    15    1
    19    14    18   ar
    20    14    19   ar
    21    15    20    1
    22    16    22   ar
    23    17    23   ar
    24    18    21   ar
    25    19    24   ar
    26    21    25   ar
    27    21    27   ar
    28    22    26   ar
    29    23    26   ar
    30    24    25   ar
    31    27    28   ar
    32     3    29    1
    33     5    30    1
    34     6    31    1
    35     6    32    1
    36     7    33    1
    37     7    34    1
    38     8    35    1
    39     8    36    1
    40     9    37    1
    41     9    38    1
    42    10    39    1
    43    10    40    1
    44    11    41    1
    45    11    42    1
    46    15    43    1
    47    15    44    1
    48    16    45    1
    49    17    46    1
    50    18    47    1
    51    19    48    1
    52    20    49    1
    53    20    50    1
    54    20    51    1
    55    22    52    1
    56    23    53    1
    57    24    54    1
    58    26    55    1
    59    27    56    1
    60    28    57    1
@<TRIPOS>MOLECULE
165365138
 55 57 0 0 0
SMALL
GASTEIGER

@<TRIPOS>ATOM
      1 F         113.2806  149.7685  146.8458 F       1  UNL111     -0.2904
      2 O         118.3427  155.4708  146.5259 O.2     1  UNL111     -0.3700
      3 N         121.7754  153.0662  146.6266 N.4     1  UNL111      0.4267
      4 N         117.5291  153.3224  146.2798 N.am    1  UNL111     -0.2832
      5 C         118.8924  152.7404  146.3509 C.3     1  UNL111      0.0192
      6 C         119.7750  153.1886  145.1752 C.3     1  UNL111     -0.0327
      7 C         119.5533  153.0082  147.7141 C.3     1  UNL111     -0.0327
      8 C         121.1928  152.6588  145.2943 C.3     1  UNL111     -0.0370
      9 C         120.9748  152.4810  147.7688 C.3     1  UNL111     -0.0370
     10 C         123.2529  152.7190  146.7629 C.3     1  UNL111     -0.0358
     11 C         124.1309  153.6620  145.9352 C.3     1  UNL111     -0.0312
     12 C         116.4258  152.4199  146.4104 C.3     1  UNL111      0.0013
     13 C         117.3953  154.7188  146.2910 C.2     1  UNL111      0.1780
     14 C         125.5893  153.3563  146.1577 C.3     1  UNL111     -0.0753
     15 C         116.3855  151.2301  145.6669 C.3     1  UNL111     -0.0398
     16 C         115.3829  152.6884  147.3122 C.3     1  UNL111     -0.0398
     17 C         116.0796  155.2851  145.8733 C.2     1  UNL111      0.0067
     18 C         126.3041  154.0040  147.1749 C.3     1  UNL111     -0.0811
     19 C         126.2404  152.3937  145.3732 C.3     1  UNL111     -0.0811
     20 C         115.3198  150.3375  145.8118 C.3     1  UNL111     -0.0166
     21 C         114.3199  151.7932  147.4580 C.3     1  UNL111     -0.0166
     22 C         114.2977  150.6269  146.7059 C.3     1  UNL111      0.0844
     23 C         115.7709  156.5631  146.1426 C.2     1  UNL111     -0.0871
     24 C         127.6460  153.6943  147.4008 C.3     1  UNL111     -0.0857
     25 C         127.5824  152.0874  145.6025 C.3     1  UNL111     -0.0857
     26 C         128.2838  152.7361  146.6162 C.3     1  UNL111     -0.0868
     27 C         114.4875  157.2112  145.7364 C.3     1  UNL111     -0.0493
     28 H         121.6986  154.0934  146.7064 H       1  UNL111      0.1323
     29 H         118.8145  151.6486  146.2736 H       1  UNL111      0.0866
     30 H         119.8247  154.2796  145.0997 H       1  UNL111      0.0551
     31 H         119.3331  152.8414  144.2332 H       1  UNL111      0.0551
     32 H         118.9599  152.5381  148.5080 H       1  UNL111      0.0551
     33 H         119.5760  154.0765  147.9505 H       1  UNL111      0.0551
     34 H         121.2290  151.5654  145.2338 H       1  UNL111      0.0741
     35 H         121.8159  153.0847  144.5038 H       1  UNL111      0.0741
     36 H         121.4545  152.7887  148.7039 H       1  UNL111      0.0741
     37 H         121.0158  151.3897  147.6806 H       1  UNL111      0.0741
     38 H         123.3724  151.6692  146.4710 H       1  UNL111      0.0751
     39 H         123.5053  152.8154  147.8254 H       1  UNL111      0.0751
     40 H         123.9284  154.7062  146.2049 H       1  UNL111      0.0589
     41 H         123.9101  153.5766  144.8656 H       1  UNL111      0.0589
     42 H         117.1511  150.9978  144.9322 H       1  UNL111      0.1024
     43 H         115.3935  153.5779  147.9387 H       1  UNL111      0.1024
     44 H         115.3992  154.6524  145.3160 H       1  UNL111      0.1215
     45 H         125.8335  154.7622  147.7973 H       1  UNL111      0.0893
     46 H         125.7197  151.8782  144.5693 H       1  UNL111      0.0893
     47 H         115.2734  149.4234  145.2271 H       1  UNL111      0.1105
     48 H         113.5138  151.9958  148.1573 H       1  UNL111      0.1105
     49 H         116.4746  157.1934  146.6842 H       1  UNL111      0.0785
     50 H         128.2002  154.2046  148.1856 H       1  UNL111      0.0876
     51 H         128.0874  151.3464  144.9864 H       1  UNL111      0.0876
     52 H         129.3315  152.5005  146.7898 H       1  UNL111      0.0874
     53 H         113.8293  156.5232  145.1964 H       1  UNL111      0.0362
     54 H         114.6919  158.0683  145.0876 H       1  UNL111      0.0362
     55 H         113.9542  157.5690  146.6224 H       1  UNL111      0.0362
@<TRIPOS>UNITY_ATOM_ATTR
3 1
charge 1
@<TRIPOS>BOND
     1     1    22    1
     2     2    13    2
     3     3     8    1
     4     3     9    1
     5     3    10    1
     6     4     5    1
     7     4    12    1
     8     4    13   am
     9     5     6    1
    10     5     7    1
    11     6     8    1
    12     7     9    1
    13    10    11    1
    14    11    14    1
    15    12    15   ar
    16    12    16   ar
    17    13    17    1
    18    14    18   ar
    19    14    19   ar
    20    15    20   ar
    21    16    21   ar
    22    17    23    2
    23    18    24   ar
    24    19    25   ar
    25    20    22   ar
    26    21    22   ar
    27    23    27    1
    28    24    26   ar
    29    25    26   ar
    30     3    28    1
    31     5    29    1
    32     6    30    1
    33     6    31    1
    34     7    32    1
    35     7    33    1
    36     8    34    1
    37     8    35    1
    38     9    36    1
    39     9    37    1
    40    10    38    1
    41    10    39    1
    42    11    40    1
    43    11    41    1
    44    15    42    1
    45    16    43    1
    46    17    44    1
    47    18    45    1
    48    19    46    1
    49    20    47    1
    50    21    48    1
    51    23    49    1
    52    24    50    1
    53    25    51    1
    54    26    52    1
    55    27    53    1
    56    27    54    1
    57    27    55    1
@<TRIPOS>MOLECULE
46780730
 28 30 0 0 0
SMALL
GASTEIGER

@<TRIPOS>ATOM
      1 O         118.9696  150.6784  146.4636 O.2     1  UNL111     -0.3760
      2 N         122.1652  152.2945  146.4909 N.4     1  UNL111      0.4580
      3 N         117.7749  152.6606  146.2470 N.am    1  UNL111     -0.2565
      4 C         118.9718  153.3867  146.2311 C.3     1  UNL111      0.1091
      5 C         119.7804  153.3268  147.4405 C.3     1  UNL111      0.0836
      6 C         119.8916  153.1032  145.1386 C.3     1  UNL111      0.0836
      7 C         121.2314  152.7972  147.5316 C.3     1  UNL111      0.0670
      8 C         121.3396  152.5794  145.2888 C.3     1  UNL111      0.0670
      9 C         123.4544  152.9555  146.4885 C.3     1  UNL111      0.0843
     10 C         116.5408  153.3937  146.1528 C.2     1  UNL111      0.0410
     11 C         117.8813  151.2515  146.3626 C.2     1  UNL111      0.1768
     12 C         124.7291  153.5965  146.4867 C.2     1  UNL111      0.0081
     13 C         116.7271  150.3922  146.3650 C.3     1  UNL111      0.1132
     14 C         115.2870  152.7881  146.1757 C.2     1  UNL111      0.0218
     15 C         116.5759  154.7906  146.0360 C.2     1  UNL111      0.0218
     16 C         125.6295  153.3511  147.5204 C.2     1  UNL111      0.0081
     17 C         125.0697  154.4608  145.4493 C.2     1  UNL111      0.0081
     18 C         115.6271  149.4295  146.3726 C.3     1  UNL111     -0.0255
     19 C         114.1105  153.5320  146.0860 C.2     1  UNL111      0.0070
     20 C         115.4094  155.5486  145.9451 C.2     1  UNL111      0.0070
     21 C         126.8758  153.9731  147.5161 C.2     1  UNL111      0.0019
     22 C         126.3165  155.0820  145.4464 C.2     1  UNL111      0.0019
     23 C         114.1727  154.9156  145.9705 C.2     1  UNL111      0.0025
     24 C         127.2190  154.8378  146.4793 C.2     1  UNL111      0.0003
     25 H         122.2555  151.2743  146.5940 H       1  UNL111      0.1747
     26 H         114.6596  149.9293  146.4675 H       1  UNL111      0.0371
     27 H         115.7309  148.7333  147.2100 H       1  UNL111      0.0371
     28 H         115.6187  148.8467  145.4469 H       1  UNL111      0.0371
@<TRIPOS>UNITY_ATOM_ATTR
2 1
charge 1
@<TRIPOS>BOND
     1     1    11    2
     2     2     7    1
     3     2     8    1
     4     2     9    1
     5     3     4    1
     6     3    10    1
     7     3    11   am
     8     4     5    1
     9     4     6    1
    10     5     7    1
    11     6     8    1
    12     9    12    1
    13    10    14    2
    14    10    15    1
    15    11    13    1
    16    12    16    2
    17    12    17    1
    18    13    18    1
    19    14    19    1
    20    15    20    2
    21    16    21    1
    22    17    22    2
    23    19    23    2
    24    20    23    1
    25    21    24    2
    26    22    24    1
    27     2    25    1
    28    18    26    1
    29    18    27    1
    30    18    28    1
@<TRIPOS>MOLECULE
527020
 54 56 0 0 0
SMALL
GASTEIGER

@<TRIPOS>ATOM
      1 O         117.2623  155.4148  145.7309 O.2     1  UNL111     -0.3822
      2 N         121.9755  153.7015  147.3511 N.4     1  UNL111      0.4292
      3 N         117.7226  153.3914  146.7091 N.am    1  UNL111     -0.2906
      4 C         119.0833  153.8570  147.0327 C.3     1  UNL111      0.0176
      5 C         119.7248  153.2241  148.2736 C.3     1  UNL111     -0.0327
      6 C         120.0228  153.7132  145.8265 C.3     1  UNL111     -0.0327
      7 C         121.0819  153.8499  148.5556 C.3     1  UNL111     -0.0355
      8 C         121.3790  154.3340  146.1139 C.3     1  UNL111     -0.0355
      9 C         123.3769  154.2103  147.6406 C.3     1  UNL111     -0.0146
     10 C         117.4268  152.0101  146.8045 C.3     1  UNL111     -0.0053
     11 C         116.8739  154.2850  146.0382 C.2     1  UNL111      0.1504
     12 C         124.3922  153.7318  146.6395 C.3     1  UNL111     -0.0704
     13 C         115.4602  153.8056  145.7235 C.3     1  UNL111      0.0353
     14 C         117.5055  151.1949  145.6709 C.3     1  UNL111     -0.0556
     15 C         117.0460  151.4636  148.0331 C.3     1  UNL111     -0.0556
     16 C         114.5600  154.9449  145.2477 C.3     1  UNL111     -0.0413
     17 C         124.8169  152.3932  146.6420 C.3     1  UNL111     -0.0746
     18 C         124.9136  154.6085  145.6760 C.3     1  UNL111     -0.0746
     19 C         117.2187  149.8333  145.7719 C.3     1  UNL111     -0.0787
     20 C         116.7590  150.1016  148.1296 C.3     1  UNL111     -0.0787
     21 C         113.1474  154.4586  144.9672 C.3     1  UNL111     -0.0653
     22 C         125.7382  151.9430  145.6956 C.3     1  UNL111     -0.0834
     23 C         125.8341  154.1528  144.7314 C.3     1  UNL111     -0.0834
     24 C         116.8487  149.2875  147.0008 C.3     1  UNL111     -0.0844
     25 C         126.2438  152.8216  144.7404 C.3     1  UNL111     -0.0861
     26 H         122.0833  152.6971  147.1558 H       1  UNL111      0.1349
     27 H         118.9962  154.9312  147.2496 H       1  UNL111      0.0863
     28 H         119.8531  152.1430  148.1394 H       1  UNL111      0.0551
     29 H         119.0784  153.3680  149.1470 H       1  UNL111      0.0551
     30 H         119.5906  154.1953  144.9419 H       1  UNL111      0.0551
     31 H         120.1515  152.6540  145.5703 H       1  UNL111      0.0551
     32 H         121.0016  154.9192  148.7813 H       1  UNL111      0.0744
     33 H         121.5680  153.3372  149.3924 H       1  UNL111      0.0744
     34 H         122.0561  154.1466  145.2759 H       1  UNL111      0.0744
     35 H         121.3060  155.4125  146.2928 H       1  UNL111      0.0744
     36 H         123.6596  153.8443  148.6351 H       1  UNL111      0.0876
     37 H         123.3261  155.3045  147.6884 H       1  UNL111      0.0876
     38 H         115.0284  153.3554  146.6243 H       1  UNL111      0.0745
     39 H         115.5155  153.0419  144.9409 H       1  UNL111      0.0745
     40 H         117.7817  151.6086  144.7045 H       1  UNL111      0.0993
     41 H         116.9432  152.0918  148.9137 H       1  UNL111      0.0993
     42 H         114.9739  155.3948  144.3374 H       1  UNL111      0.0369
     43 H         114.5267  155.7362  146.0062 H       1  UNL111      0.0369
     44 H         124.4538  151.6865  147.3857 H       1  UNL111      0.0924
     45 H         124.6186  155.6561  145.6476 H       1  UNL111      0.0924
     46 H         117.2711  149.1971  144.8910 H       1  UNL111      0.0890
     47 H         116.4492  149.6746  149.0810 H       1  UNL111      0.0890
     48 H         113.1448  153.6899  144.1878 H       1  UNL111      0.0262
     49 H         112.5210  155.2892  144.6273 H       1  UNL111      0.0262
     50 H         112.6916  154.0362  145.8684 H       1  UNL111      0.0262
     51 H         126.0734  150.9075  145.7046 H       1  UNL111      0.0880
     52 H         126.2411  154.8366  143.9886 H       1  UNL111      0.0880
     53 H         116.6137  148.2275  147.0754 H       1  UNL111      0.0876
     54 H         126.9672  152.4706  144.0068 H       1  UNL111      0.0874
@<TRIPOS>UNITY_ATOM_ATTR
2 1
charge 1
@<TRIPOS>BOND
     1     1    11    2
     2     2     7    1
     3     2     8    1
     4     2     9    1
     5     3     4    1
     6     3    10    1
     7     3    11   am
     8     4     5    1
     9     4     6    1
    10     5     7    1
    11     6     8    1
    12     9    12    1
    13    10    14   ar
    14    10    15   ar
    15    11    13    1
    16    12    17   ar
    17    12    18   ar
    18    13    16    1
    19    14    19   ar
    20    15    20   ar
    21    16    21    1
    22    17    22   ar
    23    18    23   ar
    24    19    24   ar
    25    20    24   ar
    26    22    25   ar
    27    23    25   ar
    28     2    26    1
    29     4    27    1
    30     5    28    1
    31     5    29    1
    32     6    30    1
    33     6    31    1
    34     7    32    1
    35     7    33    1
    36     8    34    1
    37     8    35    1
    38     9    36    1
    39     9    37    1
    40    13    38    1
    41    13    39    1
    42    14    40    1
    43    15    41    1
    44    16    42    1
    45    16    43    1
    46    17    44    1
    47    18    45    1
    48    19    46    1
    49    20    47    1
    50    21    48    1
    51    21    49    1
    52    21    50    1
    53    22    51    1
    54    23    52    1
    55    24    53    1
    56    25    54    1
@<TRIPOS>MOLECULE
13306764
 52 54 0 0 0
SMALL
GASTEIGER

@<TRIPOS>ATOM
      1 O         116.1977  150.5946  146.4321 O.2     1  UNL111     -0.3756
      2 N         120.9927  152.8714  146.1728 N.4     1  UNL111      0.4269
      3 N         116.7075  152.8142  146.5712 N.am    1  UNL111     -0.2618
      4 N         116.2515  154.0912  146.4644 N.pl3   1  UNL111     -0.2990
      5 C         118.1389  152.4987  146.6755 C.3     1  UNL111      0.0317
      6 C         118.9648  153.5393  147.4401 C.3     1  UNL111     -0.0284
      7 C         118.7549  152.2537  145.2925 C.3     1  UNL111     -0.0284
      8 C         120.4181  153.1049  147.5528 C.3     1  UNL111     -0.0361
      9 C         120.2057  151.8208  145.4126 C.3     1  UNL111     -0.0361
     10 C         122.4757  152.5066  146.2031 C.3     1  UNL111     -0.0357
     11 C         123.3433  153.7107  146.5806 C.3     1  UNL111     -0.0312
     12 C         115.7973  151.7615  146.4560 C.2     1  UNL111      0.1650
     13 C         124.8060  153.3683  146.4720 C.3     1  UNL111     -0.0753
     14 C         114.3134  152.1003  146.3541 C.3     1  UNL111      0.0381
     15 C         115.9137  154.8721  147.5259 C.3     1  UNL111     -0.0238
     16 C         116.1979  154.7885  145.2972 C.3     1  UNL111     -0.0238
     17 C         115.6006  156.1185  147.0222 C.3     1  UNL111     -0.0546
     18 C         115.7796  156.0655  145.6135 C.3     1  UNL111     -0.0546
     19 C         113.4402  150.8578  146.2910 C.3     1  UNL111     -0.0437
     20 C         125.4703  152.7469  147.5392 C.3     1  UNL111     -0.0811
     21 C         125.5140  153.6381  145.2926 C.3     1  UNL111     -0.0811
     22 C         126.8185  152.4047  147.4275 C.3     1  UNL111     -0.0857
     23 C         126.8623  153.2944  145.1855 C.3     1  UNL111     -0.0857
     24 C         127.5133  152.6774  146.2514 C.3     1  UNL111     -0.0868
     25 H         120.9169  153.7499  145.6396 H       1  UNL111      0.1323
     26 H         118.2131  151.5592  147.2409 H       1  UNL111      0.0944
     27 H         118.5537  153.6782  148.4470 H       1  UNL111      0.0563
     28 H         118.9202  154.5146  146.9396 H       1  UNL111      0.0563
     29 H         118.6915  153.1635  144.6825 H       1  UNL111      0.0563
     30 H         118.1945  151.4807  144.7538 H       1  UNL111      0.0563
     31 H         121.0025  153.8938  148.0331 H       1  UNL111      0.0742
     32 H         120.5250  152.1737  148.1201 H       1  UNL111      0.0742
     33 H         120.3101  150.8728  145.9520 H       1  UNL111      0.0742
     34 H         120.6568  151.7286  144.4191 H       1  UNL111      0.0742
     35 H         122.7349  152.1616  145.1952 H       1  UNL111      0.0751
     36 H         122.5945  151.6694  146.9007 H       1  UNL111      0.0751
     37 H         123.1361  154.0445  147.6035 H       1  UNL111      0.0589
     38 H         123.1147  154.5638  145.9295 H       1  UNL111      0.0589
     39 H         114.1445  152.6967  145.4518 H       1  UNL111      0.0745
     40 H         114.0215  152.6912  147.2283 H       1  UNL111      0.0745
     41 H         115.9042  154.4922  148.5387 H       1  UNL111      0.1332
     42 H         116.4297  154.3349  144.3435 H       1  UNL111      0.1332
     43 H         115.2717  156.9730  147.6019 H       1  UNL111      0.0988
     44 H         115.6113  156.8719  144.9093 H       1  UNL111      0.0988
     45 H         113.6873  150.2471  145.4163 H       1  UNL111      0.0320
     46 H         112.3843  151.1377  146.2249 H       1  UNL111      0.0320
     47 H         113.5745  150.2373  147.1832 H       1  UNL111      0.0320
     48 H         124.9554  152.5308  148.4727 H       1  UNL111      0.0893
     49 H         125.0337  154.1263  144.4474 H       1  UNL111      0.0893
     50 H         127.3334  151.9303  148.2602 H       1  UNL111      0.0876
     51 H         127.4115  153.5128  144.2721 H       1  UNL111      0.0876
     52 H         128.5659  152.4155  146.1681 H       1  UNL111      0.0874
@<TRIPOS>UNITY_ATOM_ATTR
2 1
charge 1
@<TRIPOS>BOND
     1     1    12    2
     2     2     8    1
     3     2     9    1
     4     2    10    1
     5     3     4    1
     6     3     5    1
     7     3    12   am
     8     4    15   ar
     9     4    16   ar
    10     5     6    1
    11     5     7    1
    12     6     8    1
    13     7     9    1
    14    10    11    1
    15    11    13    1
    16    12    14    1
    17    13    20   ar
    18    13    21   ar
    19    14    19    1
    20    15    17   ar
    21    16    18   ar
    22    17    18   ar
    23    20    22   ar
    24    21    23   ar
    25    22    24   ar
    26    23    24   ar
    27     2    25    1
    28     5    26    1
    29     6    27    1
    30     6    28    1
    31     7    29    1
    32     7    30    1
    33     8    31    1
    34     8    32    1
    35     9    33    1
    36     9    34    1
    37    10    35    1
    38    10    36    1
    39    11    37    1
    40    11    38    1
    41    14    39    1
    42    14    40    1
    43    15    41    1
    44    16    42    1
    45    17    43    1
    46    18    44    1
    47    19    45    1
    48    19    46    1
    49    19    47    1
    50    20    48    1
    51    21    49    1
    52    22    50    1
    53    23    51    1
    54    24    52    1
@<TRIPOS>MOLECULE
90274196
 48 49 0 0 0
SMALL
GASTEIGER

@<TRIPOS>ATOM
      1 O         121.5223  152.5936  148.6824 O.3     1  UNL111     -0.4622
      2 O         119.2554  150.6406  145.7248 O.2     1  UNL111     -0.3818
      3 N         119.6292  152.8783  146.1207 N.am    1  UNL111     -0.2800
      4 N         123.7983  153.2755  145.0735 N.4     1  UNL111      0.4319
      5 C         121.1352  152.6963  146.2532 C.3     1  UNL111      0.0439
      6 C         121.6757  152.0201  144.9497 C.3     1  UNL111     -0.0239
      7 C         121.8916  154.0630  146.3759 C.3     1  UNL111     -0.0239
      8 C         123.1929  151.9369  144.8555 C.3     1  UNL111     -0.0315
      9 C         123.4003  153.9121  146.3595 C.3     1  UNL111     -0.0315
     10 C         121.4379  151.7917  147.5003 C.3     1  UNL111      0.0267
     11 C         119.0690  154.1649  146.3302 C.3     1  UNL111     -0.0024
     12 C         118.7914  151.7695  145.9014 C.2     1  UNL111      0.1527
     13 C         117.2811  152.0033  145.9041 C.3     1  UNL111      0.0357
     14 C         118.9755  154.6920  147.6215 C.3     1  UNL111     -0.0551
     15 C         118.5972  154.9000  145.2377 C.3     1  UNL111     -0.0551
     16 C         116.4937  150.6954  145.8211 C.3     1  UNL111     -0.0412
     17 C         121.5556  151.7953  149.8630 C.3     1  UNL111     -0.0028
     18 C         118.4205  155.9568  147.8169 C.3     1  UNL111     -0.0786
     19 C         118.0430  156.1645  145.4379 C.3     1  UNL111     -0.0786
     20 C         114.9945  150.9452  145.8463 C.3     1  UNL111     -0.0653
     21 C         117.9568  156.6923  146.7262 C.3     1  UNL111     -0.0844
     22 H         123.5539  153.8995  144.2903 H       1  UNL111      0.1346
     23 H         124.8248  153.1931  145.0426 H       1  UNL111      0.1346
     24 H         121.2997  152.5792  144.0814 H       1  UNL111      0.0581
     25 H         121.3012  150.9995  144.8364 H       1  UNL111      0.0581
     26 H         121.6206  154.5977  147.2919 H       1  UNL111      0.0581
     27 H         121.6040  154.7194  145.5430 H       1  UNL111      0.0581
     28 H         123.6283  151.2567  145.5930 H       1  UNL111      0.0741
     29 H         123.5056  151.6087  143.8592 H       1  UNL111      0.0741
     30 H         123.8953  154.8875  146.3915 H       1  UNL111      0.0741
     31 H         123.7873  153.2923  147.1736 H       1  UNL111      0.0741
     32 H         120.6753  151.0199  147.6396 H       1  UNL111      0.0992
     33 H         122.3988  151.2799  147.3934 H       1  UNL111      0.0992
     34 H         117.0221  152.6286  145.0435 H       1  UNL111      0.0746
     35 H         117.0013  152.5291  146.8233 H       1  UNL111      0.0746
     36 H         119.3168  154.1215  148.4816 H       1  UNL111      0.0994
     37 H         118.6524  154.4966  144.2301 H       1  UNL111      0.0994
     38 H         116.7655  150.0418  146.6586 H       1  UNL111      0.0369
     39 H         116.7546  150.1587  144.9011 H       1  UNL111      0.0369
     40 H         121.6542  152.4613  150.7241 H       1  UNL111      0.0816
     41 H         122.4144  151.1177  149.8413 H       1  UNL111      0.0816
     42 H         120.6261  151.2271  149.9646 H       1  UNL111      0.0816
     43 H         118.3382  156.3664  148.8213 H       1  UNL111      0.0890
     44 H         117.6679  156.7372  144.5927 H       1  UNL111      0.0890
     45 H         114.6961  151.4482  146.7717 H       1  UNL111      0.0262
     46 H         114.4511  149.9972  145.7848 H       1  UNL111      0.0262
     47 H         114.6865  151.5690  145.0012 H       1  UNL111      0.0262
     48 H         117.5158  157.6748  146.8824 H       1  UNL111      0.0876
@<TRIPOS>UNITY_ATOM_ATTR
4 1
charge 1
@<TRIPOS>BOND
     1     1    10    1
     2     1    17    1
     3     2    12    2
     4     3     5    1
     5     3    11    1
     6     3    12   am
     7     4     8    1
     8     4     9    1
     9     5     6    1
    10     5     7    1
    11     5    10    1
    12     6     8    1
    13     7     9    1
    14    11    14   ar
    15    11    15   ar
    16    12    13    1
    17    13    16    1
    18    14    18   ar
    19    15    19   ar
    20    16    20    1
    21    18    21   ar
    22    19    21   ar
    23     4    22    1
    24     4    23    1
    25     6    24    1
    26     6    25    1
    27     7    26    1
    28     7    27    1
    29     8    28    1
    30     8    29    1
    31     9    30    1
    32     9    31    1
    33    10    32    1
    34    10    33    1
    35    13    34    1
    36    13    35    1
    37    14    36    1
    38    15    37    1
    39    16    38    1
    40    16    39    1
    41    17    40    1
    42    17    41    1
    43    17    42    1
    44    18    43    1
    45    19    44    1
    46    20    45    1
    47    20    46    1
    48    20    47    1
    49    21    48    1
@<TRIPOS>MOLECULE
137699892
 31 33 0 0 0
SMALL
GASTEIGER

@<TRIPOS>ATOM
      1 O         116.3602  149.7956  147.0643 O.2     1  UNL111     -0.3740
      2 N         120.7056  152.1080  144.8007 N.4     1  UNL111      0.4556
      3 N         116.3367  152.1163  146.6517 N.am    1  UNL111     -0.2636
      4 C         117.6668  152.1712  146.2542 C.3     1  UNL111      0.1077
      5 C         118.2599  153.2353  145.4786 C.3     1  UNL111      0.0830
      6 C         118.6208  151.0922  146.3154 C.3     1  UNL111      0.0830
      7 C         119.6621  153.1685  144.8208 C.3     1  UNL111      0.0648
      8 C         120.0104  151.0906  145.6335 C.3     1  UNL111      0.0648
      9 C         121.9707  152.5376  145.3633 C.3     1  UNL111      0.0661
     10 C         123.3123  152.9902  145.9515 C.3     1  UNL111      0.0775
     11 C         115.4965  153.2833  146.5892 C.3     1  UNL111     -0.0002
     12 C         115.8199  150.8923  147.1085 C.2     1  UNL111      0.1894
     13 C         124.5619  153.4102  146.4955 C.2     1  UNL111     -0.0065
     14 C         115.9629  154.5235  147.0581 C.3     1  UNL111     -0.0549
     15 C         114.2122  153.2234  146.0265 C.3     1  UNL111     -0.0549
     16 C         114.5049  150.7298  147.8136 C.3     1  UNL111      0.1813
     17 C         125.2531  154.4699  145.9110 C.2     1  UNL111     -0.0075
     18 C         125.0899  152.7589  147.6087 C.2     1  UNL111     -0.0075
     19 C         115.1638  155.6669  146.9735 C.3     1  UNL111     -0.0786
     20 C         113.4167  154.3694  145.9408 C.3     1  UNL111     -0.0786
     21 C         113.8922  155.5891  146.4135 C.3     1  UNL111     -0.0844
     22 C         126.4758  154.8800  146.4411 C.2     1  UNL111     -0.0110
     23 C         126.3125  153.1684  148.1396 C.2     1  UNL111     -0.0110
     24 C         127.0010  154.2275  147.5535 C.2     1  UNL111     -0.0220
     25 C         128.3128  154.6689  148.1239 C.3     1  UNL111      0.0451
     26 H         120.8290  151.7516  143.8445 H       1  UNL111      0.1720
     27 H         116.9316  154.6181  147.5419 H       1  UNL111      0.0994
     28 H         113.8056  152.2983  145.6225 H       1  UNL111      0.0994
     29 H         115.5246  156.6179  147.3597 H       1  UNL111      0.0890
     30 H         112.4202  154.3080  145.5073 H       1  UNL111      0.0890
     31 H         113.2654  156.4767  146.3547 H       1  UNL111      0.0876
@<TRIPOS>UNITY_ATOM_ATTR
2 1
charge 1
@<TRIPOS>BOND
     1     1    12    2
     2     2     7    1
     3     2     8    1
     4     2     9    1
     5     3     4    1
     6     3    11    1
     7     3    12   am
     8     4     5    1
     9     4     6    1
    10     5     7    1
    11     6     8    1
    12     9    10    1
    13    10    13    1
    14    11    14   ar
    15    11    15   ar
    16    12    16    1
    17    13    17    2
    18    13    18    1
    19    14    19   ar
    20    15    20   ar
    21    17    22    1
    22    18    23    2
    23    19    21   ar
    24    20    21   ar
    25    22    24    2
    26    23    24    1
    27    24    25    1
    28     2    26    1
    29    14    27    1
    30    15    28    1
    31    19    29    1
    32    20    30    1
    33    21    31    1
@<TRIPOS>MOLECULE
137699971
 55 57 0 0 0
SMALL
GASTEIGER

@<TRIPOS>ATOM
      1 F         112.8507  154.1977  147.6015 F       1  UNL111     -0.2889
      2 O         115.8090  151.1827  145.6490 O.2     1  UNL111     -0.3692
      3 O         117.6255  149.1350  145.6918 O.3     1  UNL111     -0.4394
      4 N         121.6045  153.1505  146.6909 N.4     1  UNL111      0.4267
      5 N         117.3119  152.7967  146.3683 N.am    1  UNL111     -0.2805
      6 C         118.7060  153.2907  146.5417 C.3     1  UNL111      0.0193
      7 C         119.4145  152.7827  147.8052 C.3     1  UNL111     -0.0328
      8 C         119.5592  153.1283  145.2782 C.3     1  UNL111     -0.0328
      9 C         120.7921  153.4176  147.9438 C.3     1  UNL111     -0.0370
     10 C         120.9425  153.7355  145.4615 C.3     1  UNL111     -0.0370
     11 C         123.0430  153.6421  146.8710 C.3     1  UNL111     -0.0358
     12 C         123.9868  152.9890  145.8567 C.3     1  UNL111     -0.0312
     13 C         116.2636  153.8025  146.3863 C.3     1  UNL111      0.0117
     14 C         116.9227  151.4629  146.1032 C.2     1  UNL111      0.1826
     15 C         125.4168  153.3632  146.1442 C.3     1  UNL111     -0.0753
     16 C         117.9009  150.3204  146.4238 C.3     1  UNL111      0.1005
     17 C         115.0196  153.5187  146.9697 C.3     1  UNL111      0.0064
     18 C         116.4579  155.0891  145.8522 C.3     1  UNL111     -0.0505
     19 C         125.9779  154.5149  145.5749 C.3     1  UNL111     -0.0811
     20 C         126.1952  152.5819  147.0101 C.3     1  UNL111     -0.0811
     21 C         114.0222  154.4892  147.0221 C.3     1  UNL111      0.0901
     22 C         115.4473  156.0581  145.9063 C.3     1  UNL111     -0.0632
     23 C         114.2258  155.7572  146.4987 C.3     1  UNL111     -0.0223
     24 C         127.2944  154.8753  145.8656 C.3     1  UNL111     -0.0857
     25 C         127.5108  152.9467  147.2986 C.3     1  UNL111     -0.0857
     26 C         128.0592  154.0927  146.7275 C.3     1  UNL111     -0.0868
     27 C         118.1415  147.9692  146.3165 C.3     1  UNL111      0.0023
     28 H         121.6655  152.1287  146.5722 H       1  UNL111      0.1323
     29 H         118.6458  154.3713  146.7209 H       1  UNL111      0.0865
     30 H         119.5392  151.6993  147.8134 H       1  UNL111      0.0551
     31 H         118.8116  153.0262  148.6885 H       1  UNL111      0.0551
     32 H         119.0639  153.6181  144.4310 H       1  UNL111      0.0551
     33 H         119.6671  152.0785  144.9931 H       1  UNL111      0.0551
     34 H         120.7362  154.5036  148.0783 H       1  UNL111      0.0741
     35 H         121.3291  152.9720  148.7878 H       1  UNL111      0.0741
     36 H         121.5679  153.5037  144.5956 H       1  UNL111      0.0741
     37 H         120.8955  154.8219  145.5960 H       1  UNL111      0.0741
     38 H         123.3430  153.3686  147.8893 H       1  UNL111      0.0751
     39 H         123.0310  154.7352  146.7916 H       1  UNL111      0.0751
     40 H         123.7382  153.2909  144.8332 H       1  UNL111      0.0589
     41 H         123.8823  151.8970  145.8854 H       1  UNL111      0.0589
     42 H         118.9259  150.5899  146.1867 H       1  UNL111      0.1315
     43 H         117.8127  150.1327  147.5007 H       1  UNL111      0.1315
     44 H         114.7976  152.5495  147.4069 H       1  UNL111      0.1209
     45 H         117.3702  155.3575  145.3295 H       1  UNL111      0.0999
     46 H         125.4079  155.1396  144.8907 H       1  UNL111      0.0893
     47 H         125.7969  151.6764  147.4627 H       1  UNL111      0.0893
     48 H         115.6065  157.0420  145.4707 H       1  UNL111      0.0920
     49 H         113.4288  156.4930  146.5464 H       1  UNL111      0.1090
     50 H         127.7308  155.7640  145.4144 H       1  UNL111      0.0876
     51 H         128.1155  152.3339  147.9639 H       1  UNL111      0.0876
     52 H         129.0875  154.3718  146.9479 H       1  UNL111      0.0874
     53 H         117.9251  147.1092  145.6773 H       1  UNL111      0.0825
     54 H         117.6625  147.8116  147.2877 H       1  UNL111      0.0825
     55 H         119.2257  148.0515  146.4404 H       1  UNL111      0.0825
@<TRIPOS>UNITY_ATOM_ATTR
4 1
charge 1
@<TRIPOS>BOND
     1     1    21    1
     2     2    14    2
     3     3    16    1
     4     3    27    1
     5     4     9    1
     6     4    10    1
     7     4    11    1
     8     5     6    1
     9     5    13    1
    10     5    14   am
    11     6     7    1
    12     6     8    1
    13     7     9    1
    14     8    10    1
    15    11    12    1
    16    12    15    1
    17    13    17   ar
    18    13    18   ar
    19    14    16    1
    20    15    19   ar
    21    15    20   ar
    22    17    21   ar
    23    18    22   ar
    24    19    24   ar
    25    20    25   ar
    26    21    23   ar
    27    22    23   ar
    28    24    26   ar
    29    25    26   ar
    30     4    28    1
    31     6    29    1
    32     7    30    1
    33     7    31    1
    34     8    32    1
    35     8    33    1
    36     9    34    1
    37     9    35    1
    38    10    36    1
    39    10    37    1
    40    11    38    1
    41    11    39    1
    42    12    40    1
    43    12    41    1
    44    16    42    1
    45    16    43    1
    46    17    44    1
    47    18    45    1
    48    19    46    1
    49    20    47    1
    50    22    48    1
    51    23    49    1
    52    24    50    1
    53    25    51    1
    54    26    52    1
    55    27    53    1
    56    27    54    1
    57    27    55    1
@<TRIPOS>MOLECULE
137699980
 33 36 0 0 0
SMALL
GASTEIGER

@<TRIPOS>ATOM
      1 O         117.2642  155.8133  146.1399 O.2     1  UNL111     -0.3760
      2 N         117.2531  153.4994  146.4690 N.am    1  UNL111     -0.2649
      3 N         121.7331  153.3361  145.0860 N.4     1  UNL111      0.4556
      4 C         115.2540  154.8568  146.9478 C.3     1  UNL111      0.1089
      5 C         118.6394  153.3870  146.3956 C.3     1  UNL111      0.1076
      6 C         114.3176  155.8126  146.3895 C.3     1  UNL111      0.0375
      7 C         114.7347  156.0424  147.5996 C.3     1  UNL111      0.0375
      8 C         113.7417  157.0812  147.0449 C.3     1  UNL111      0.0146
      9 C         119.5697  154.4877  146.3584 C.3     1  UNL111      0.0830
     10 C         119.3230  152.2183  145.8896 C.3     1  UNL111      0.0830
     11 C         116.6640  154.7871  146.4623 C.2     1  UNL111      0.1757
     12 C         120.9854  154.4385  145.7435 C.3     1  UNL111      0.0648
     13 C         120.7498  152.2387  145.2857 C.3     1  UNL111      0.0648
     14 C         123.0348  153.0786  145.6634 C.3     1  UNL111      0.0661
     15 C         116.4307  152.3185  146.4966 C.3     1  UNL111     -0.0003
     16 C         124.4427  152.8141  146.2055 C.3     1  UNL111      0.0776
     17 C         116.7333  151.2603  147.3674 C.3     1  UNL111     -0.0549
     18 C         115.3361  152.1864  145.6276 C.3     1  UNL111     -0.0549
     19 C         125.7718  152.5742  146.6615 C.2     1  UNL111     -0.0058
     20 C         115.9447  150.1071  147.3831 C.3     1  UNL111     -0.0786
     21 C         114.5532  151.0298  145.6429 C.3     1  UNL111     -0.0786
     22 C         114.8560  149.9931  146.5219 C.3     1  UNL111     -0.0844
     23 C         125.9914  152.0534  147.9338 C.2     1  UNL111     -0.0052
     24 C         126.8488  152.8561  145.8237 C.2     1  UNL111     -0.0052
     25 C         127.2934  151.8146  148.3689 C.2     1  UNL111     -0.0019
     26 C         128.1498  152.6169  146.2598 C.2     1  UNL111     -0.0019
     27 C         128.3716  152.0959  147.5323 C.2     1  UNL111     -0.0007
     28 H         121.8193  153.5411  144.0826 H       1  UNL111      0.1720
     29 H         117.5556  151.3307  148.0749 H       1  UNL111      0.0994
     30 H         115.0923  152.9584  144.9006 H       1  UNL111      0.0994
     31 H         116.1713  149.2988  148.0754 H       1  UNL111      0.0890
     32 H         113.7074  150.9346  144.9647 H       1  UNL111      0.0890
     33 H         114.2407  149.0956  146.5365 H       1  UNL111      0.0876
@<TRIPOS>UNITY_ATOM_ATTR
3 1
charge 1
@<TRIPOS>BOND
     1     1    11    2
     2     2     5    1
     3     2    11   am
     4     2    15    1
     5     3    12    1
     6     3    13    1
     7     3    14    1
     8     4     6    1
     9     4     7    1
    10     4    11    1
    11     5     9    1
    12     5    10    1
    13     6     8    1
    14     7     8    1
    15     9    12    1
    16    10    13    1
    17    14    16    1
    18    15    17   ar
    19    15    18   ar
    20    16    19    1
    21    17    20   ar
    22    18    21   ar
    23    19    23    2
    24    19    24    1
    25    20    22   ar
    26    21    22   ar
    27    23    25    1
    28    24    26    2
    29    25    27    2
    30    26    27    1
    31     3    28    1
    32    17    29    1
    33    18    30    1
    34    20    31    1
    35    21    32    1
    36    22    33    1
@<TRIPOS>MOLECULE
137700020
 59 62 0 0 0
SMALL
GASTEIGER

@<TRIPOS>ATOM
      1 O         116.1140  156.1759  147.9471 O.3     1  UNL111     -0.4601
      2 O         118.1713  154.8546  145.3101 O.2     1  UNL111     -0.3785
      3 N         121.7595  152.7807  146.0782 N.4     1  UNL111      0.4267
      4 N         117.4922  152.8608  146.2198 N.am    1  UNL111     -0.2883
      5 C         118.8880  152.3808  146.3625 C.3     1  UNL111      0.0179
      6 C         119.5929  152.2517  145.0027 C.3     1  UNL111     -0.0330
      7 C         119.6900  153.2366  147.3554 C.3     1  UNL111     -0.0330
      8 C         121.0393  151.8198  145.1576 C.3     1  UNL111     -0.0370
      9 C         121.1351  152.7834  147.4539 C.3     1  UNL111     -0.0370
     10 C         115.8704  154.7899  146.0321 C.3     1  UNL111      0.0706
     11 C         123.2555  152.4928  146.1054 C.3     1  UNL111     -0.0358
     12 C         117.2572  154.1769  145.7926 C.2     1  UNL111      0.1635
     13 C         115.7944  156.2424  145.5984 C.3     1  UNL111     -0.0054
     14 C         115.5860  154.9111  147.5186 C.3     1  UNL111      0.0285
     15 C         116.4599  151.8922  146.3886 C.3     1  UNL111     -0.0050
     16 C         124.0510  153.7024  146.6048 C.3     1  UNL111     -0.0312
     17 C         116.3620  156.9857  146.7900 C.3     1  UNL111      0.0072
     18 C         115.5017  151.6909  145.3883 C.3     1  UNL111     -0.0555
     19 C         116.4240  151.0873  147.5347 C.3     1  UNL111     -0.0555
     20 C         125.5298  153.4197  146.5522 C.3     1  UNL111     -0.0753
     21 C         114.5085  150.7214  145.5437 C.3     1  UNL111     -0.0787
     22 C         115.4277  150.1210  147.6905 C.3     1  UNL111     -0.0787
     23 C         126.1770  152.8215  147.6428 C.3     1  UNL111     -0.0811
     24 C         126.2703  153.7180  145.3998 C.3     1  UNL111     -0.0811
     25 C         114.4698  149.9399  146.6959 C.3     1  UNL111     -0.0844
     26 C         127.5401  152.5296  147.5806 C.3     1  UNL111     -0.0857
     27 C         127.6332  153.4238  145.3419 C.3     1  UNL111     -0.0857
     28 C         128.2669  152.8291  146.4306 C.3     1  UNL111     -0.0868
     29 H         121.6408  153.7238  145.6744 H       1  UNL111      0.1323
     30 H         118.8653  151.3660  146.7816 H       1  UNL111      0.0864
     31 H         119.5742  153.1934  144.4455 H       1  UNL111      0.0550
     32 H         119.0595  151.5230  144.3800 H       1  UNL111      0.0550
     33 H         119.2220  153.1841  148.3461 H       1  UNL111      0.0550
     34 H         119.6817  154.2948  147.0740 H       1  UNL111      0.0550
     35 H         121.1283  150.8159  145.5875 H       1  UNL111      0.0741
     36 H         121.5458  151.8463  144.1871 H       1  UNL111      0.0741
     37 H         121.6997  153.4753  148.0841 H       1  UNL111      0.0741
     38 H         121.2209  151.7701  147.8618 H       1  UNL111      0.0741
     39 H         115.1116  154.2076  145.5098 H       1  UNL111      0.0946
     40 H         123.5524  152.2534  145.0775 H       1  UNL111      0.0751
     41 H         123.4082  151.6031  146.7273 H       1  UNL111      0.0751
     42 H         114.7425  156.5252  145.4653 H       1  UNL111      0.0530
     43 H         116.3195  156.4778  144.6683 H       1  UNL111      0.0530
     44 H         114.5063  154.9290  147.7057 H       1  UNL111      0.0957
     45 H         116.0255  154.1282  148.1410 H       1  UNL111      0.0957
     46 H         123.7762  153.9643  147.6324 H       1  UNL111      0.0589
     47 H         123.8234  154.5860  145.9951 H       1  UNL111      0.0589
     48 H         117.4447  157.1219  146.7024 H       1  UNL111      0.0888
     49 H         115.9012  157.9685  146.9252 H       1  UNL111      0.0888
     50 H         115.5315  152.2553  144.4593 H       1  UNL111      0.0993
     51 H         117.1382  151.2272  148.3412 H       1  UNL111      0.0993
     52 H         113.7672  150.5699  144.7618 H       1  UNL111      0.0890
     53 H         115.3909  149.5137  148.5923 H       1  UNL111      0.0890
     54 H         125.6359  152.5850  148.5564 H       1  UNL111      0.0893
     55 H         125.8030  154.1902  144.5383 H       1  UNL111      0.0893
     56 H         113.6926  149.1882  146.8176 H       1  UNL111      0.0876
     57 H         128.0413  152.0737  148.4318 H       1  UNL111      0.0876
     58 H         128.2069  153.6640  144.4492 H       1  UNL111      0.0876
     59 H         129.3307  152.6063  146.3859 H       1  UNL111      0.0874
@<TRIPOS>UNITY_ATOM_ATTR
3 1
charge 1
@<TRIPOS>BOND
     1     1    14    1
     2     1    17    1
     3     2    12    2
     4     3     8    1
     5     3     9    1
     6     3    11    1
     7     4     5    1
     8     4    12   am
     9     4    15    1
    10     5     6    1
    11     5     7    1
    12     6     8    1
    13     7     9    1
    14    10    12    1
    15    10    13    1
    16    10    14    1
    17    11    16    1
    18    13    17    1
    19    15    18   ar
    20    15    19   ar
    21    16    20    1
    22    18    21   ar
    23    19    22   ar
    24    20    23   ar
    25    20    24   ar
    26    21    25   ar
    27    22    25   ar
    28    23    26   ar
    29    24    27   ar
    30    26    28   ar
    31    27    28   ar
    32     3    29    1
    33     5    30    1
    34     6    31    1
    35     6    32    1
    36     7    33    1
    37     7    34    1
    38     8    35    1
    39     8    36    1
    40     9    37    1
    41     9    38    1
    42    10    39    1
    43    11    40    1
    44    11    41    1
    45    13    42    1
    46    13    43    1
    47    14    44    1
    48    14    45    1
    49    16    46    1
    50    16    47    1
    51    17    48    1
    52    17    49    1
    53    18    50    1
    54    19    51    1
    55    21    52    1
    56    22    53    1
    57    23    54    1
    58    24    55    1
    59    25    56    1
    60    26    57    1
    61    27    58    1
    62    28    59    1
@<TRIPOS>MOLECULE
137700041
 55 58 0 0 0
SMALL
GASTEIGER

@<TRIPOS>ATOM
      1 F         113.8920  149.3507  145.6992 F       1  UNL111     -0.2904
      2 O         118.5797  155.3138  145.9448 O.2     1  UNL111     -0.3622
      3 O         114.6944  156.6168  146.7828 O.2     1  UNL111     -0.5488
      4 N         122.1616  153.0567  146.1345 N.4     1  UNL111      0.4267
      5 N         117.8870  153.1666  146.4066 N.am    1  UNL111     -0.2783
      6 C         119.2837  152.6632  146.4033 C.3     1  UNL111      0.0199
      7 C         119.9539  152.8314  145.0294 C.3     1  UNL111     -0.0327
      8 C         120.1276  153.2751  147.5321 C.3     1  UNL111     -0.0327
      9 C         121.3919  152.3455  145.0422 C.3     1  UNL111     -0.0370
     10 C         121.5634  152.7798  147.4937 C.3     1  UNL111     -0.0370
     11 C         123.6459  152.7145  146.0553 C.3     1  UNL111     -0.0358
     12 C         124.5015  153.7176  146.8343 C.3     1  UNL111     -0.0312
     13 C         116.8477  152.1956  146.2364 C.3     1  UNL111      0.0020
     14 C         117.6686  154.5589  146.2910 C.2     1  UNL111      0.2079
     15 C         125.9659  153.4132  146.6527 C.3     1  UNL111     -0.0753
     16 C         115.8377  152.3845  145.2785 C.3     1  UNL111     -0.0397
     17 C         116.8390  151.0186  147.0020 C.3     1  UNL111     -0.0397
     18 C         116.3782  155.1136  146.6858 C.3     1  UNL111      0.1026
     19 C         126.6009  152.4677  147.4708 C.3     1  UNL111     -0.0811
     20 C         126.7032  154.0440  145.6411 C.3     1  UNL111     -0.0811
     21 C         114.8387  151.4238  145.0986 C.3     1  UNL111     -0.0166
     22 C         115.8378  150.0603  146.8217 C.3     1  UNL111     -0.0166
     23 C         115.3840  154.6463  147.5979 C.3     1  UNL111      0.0111
     24 C         115.9065  156.3359  146.2443 C.3     1  UNL111      0.0610
     25 C         114.8478  150.2713  145.8715 C.3     1  UNL111      0.0844
     26 C         127.9486  152.1608  147.2794 C.3     1  UNL111     -0.0857
     27 C         128.0510  153.7344  145.4536 C.3     1  UNL111     -0.0857
     28 C         114.3804  155.5866  147.6059 C.3     1  UNL111      0.0317
     29 C         128.6723  152.7928  146.2708 C.3     1  UNL111     -0.0868
     30 H         122.0776  154.0691  145.9487 H       1  UNL111      0.1323
     31 H         119.2675  151.5833  146.5945 H       1  UNL111      0.0867
     32 H         119.9471  153.8753  144.7009 H       1  UNL111      0.0551
     33 H         119.3887  152.2731  144.2730 H       1  UNL111      0.0551
     34 H         119.6804  153.0234  148.5016 H       1  UNL111      0.0551
     35 H         120.1413  154.3686  147.4794 H       1  UNL111      0.0551
     36 H         121.4617  151.2687  145.2328 H       1  UNL111      0.0741
     37 H         121.8769  152.5786  144.0884 H       1  UNL111      0.0741
     38 H         122.1570  153.3099  148.2427 H       1  UNL111      0.0741
     39 H         121.6302  151.7012  147.6744 H       1  UNL111      0.0741
     40 H         123.9196  152.7395  144.9939 H       1  UNL111      0.0751
     41 H         123.7655  151.6883  146.4218 H       1  UNL111      0.0751
     42 H         124.2683  153.6953  147.9045 H       1  UNL111      0.0589
     43 H         124.2911  154.7403  146.4974 H       1  UNL111      0.0589
     44 H         115.8185  153.2645  144.6394 H       1  UNL111      0.1024
     45 H         117.5749  150.8458  147.7822 H       1  UNL111      0.1024
     46 H         126.0627  151.9659  148.2719 H       1  UNL111      0.0893
     47 H         126.2459  154.7889  144.9932 H       1  UNL111      0.0893
     48 H         114.0563  151.5675  144.3588 H       1  UNL111      0.1105
     49 H         115.8152  149.1557  147.4225 H       1  UNL111      0.1105
     50 H         115.3905  153.7388  148.1850 H       1  UNL111      0.1190
     51 H         116.3010  157.0864  145.5719 H       1  UNL111      0.1831
     52 H         128.4407  151.4329  147.9208 H       1  UNL111      0.0876
     53 H         128.6227  154.2320  144.6731 H       1  UNL111      0.0876
     54 H         113.4345  155.6727  148.1240 H       1  UNL111      0.1745
     55 H         129.7245  152.5571  146.1266 H       1  UNL111      0.0874
@<TRIPOS>UNITY_ATOM_ATTR
4 1
charge 1
@<TRIPOS>BOND
     1     1    25    1
     2     2    14    2
     3     3    24   ar
     4     3    28   ar
     5     4     9    1
     6     4    10    1
     7     4    11    1
     8     5     6    1
     9     5    13    1
    10     5    14   am
    11     6     7    1
    12     6     8    1
    13     7     9    1
    14     8    10    1
    15    11    12    1
    16    12    15    1
    17    13    16   ar
    18    13    17   ar
    19    14    18    1
    20    15    19   ar
    21    15    20   ar
    22    16    21   ar
    23    17    22   ar
    24    18    23   ar
    25    18    24   ar
    26    19    26   ar
    27    20    27   ar
    28    21    25   ar
    29    22    25   ar
    30    23    28   ar
    31    26    29   ar
    32    27    29   ar
    33     4    30    1
    34     6    31    1
    35     7    32    1
    36     7    33    1
    37     8    34    1
    38     8    35    1
    39     9    36    1
    40     9    37    1
    41    10    38    1
    42    10    39    1
    43    11    40    1
    44    11    41    1
    45    12    42    1
    46    12    43    1
    47    16    44    1
    48    17    45    1
    49    19    46    1
    50    20    47    1
    51    21    48    1
    52    22    49    1
    53    23    50    1
    54    24    51    1
    55    26    52    1
    56    27    53    1
    57    28    54    1
    58    29    55    1
@<TRIPOS>MOLECULE
156346345
 52 54 0 0 0
SMALL
GASTEIGER

@<TRIPOS>ATOM
      1 N         121.0393  153.5306  146.4870 N.4     1  UNL111      0.4267
      2 N         116.8016  153.7937  146.0547 N.pl3   1  UNL111     -0.4152
      3 C         118.1404  153.3166  146.4127 C.3     1  UNL111      0.0014
      4 C         118.9889  153.0743  145.1625 C.3     1  UNL111     -0.0353
      5 C         118.8390  154.2821  147.3687 C.3     1  UNL111     -0.0353
      6 C         120.3639  152.5540  145.5449 C.3     1  UNL111     -0.0374
      7 C         120.2151  153.7579  147.7406 C.3     1  UNL111     -0.0374
      8 C         122.4611  153.1100  146.8507 C.3     1  UNL111     -0.0358
      9 C         116.5982  155.0551  145.3283 C.3     1  UNL111     -0.0137
     10 C         115.7036  152.9772  146.3271 C.ar    1  UNL111     -0.0223
     11 C         123.4250  153.3161  145.6789 C.3     1  UNL111     -0.0312
     12 C         115.7908  156.0467  146.1554 C.3     1  UNL111     -0.0517
     13 C         124.8387  153.0043  146.0952 C.ar    1  UNL111     -0.0753
     14 C         115.5583  152.3455  147.5735 C.ar    1  UNL111     -0.0582
     15 C         114.6907  152.7584  145.3814 C.ar    1  UNL111     -0.0582
     16 C         114.4606  151.5266  147.8600 C.ar    1  UNL111     -0.0791
     17 C         113.5914  151.9382  145.6597 C.ar    1  UNL111     -0.0791
     18 C         125.6634  154.0091  146.6203 C.ar    1  UNL111     -0.0811
     19 C         125.3358  151.6971  145.9952 C.ar    1  UNL111     -0.0811
     20 C         113.4771  151.3208  146.8999 C.ar    1  UNL111     -0.0845
     21 C         126.9617  153.7101  147.0354 C.ar    1  UNL111     -0.0857
     22 C         126.6349  151.4030  146.4110 C.ar    1  UNL111     -0.0857
     23 C         127.4464  152.4083  146.9318 C.ar    1  UNL111     -0.0868
     24 H         121.1119  154.4391  146.0067 H       1  UNL111      0.1323
     25 H         118.0709  152.3464  146.9239 H       1  UNL111      0.0827
     26 H         119.1029  153.9937  144.5761 H       1  UNL111      0.0546
     27 H         118.4930  152.3473  144.5078 H       1  UNL111      0.0546
     28 H         118.2398  154.4118  148.2779 H       1  UNL111      0.0546
     29 H         118.9410  155.2770  146.9187 H       1  UNL111      0.0546
     30 H         120.3098  151.5852  146.0537 H       1  UNL111      0.0740
     31 H         120.9873  152.4618  144.6519 H       1  UNL111      0.0740
     32 H         120.7468  154.4932  148.3535 H       1  UNL111      0.0740
     33 H         120.1615  152.8046  148.2785 H       1  UNL111      0.0740
     34 H         122.4213  152.0662  147.1830 H       1  UNL111      0.0751
     35 H         122.7672  153.7342  147.6985 H       1  UNL111      0.0751
     36 H         116.1217  154.8861  144.3570 H       1  UNL111      0.0699
     37 H         117.5619  155.5237  145.1007 H       1  UNL111      0.0699
     38 H         123.3687  154.3500  145.3157 H       1  UNL111      0.0589
     39 H         123.1576  152.6800  144.8278 H       1  UNL111      0.0589
     40 H         114.7751  155.6850  146.3433 H       1  UNL111      0.0334
     41 H         115.7130  157.0024  145.6275 H       1  UNL111      0.0334
     42 H         116.2673  156.2298  147.1241 H       1  UNL111      0.0334
     43 H         116.2834  152.5145  148.3638 H       1  UNL111      0.0988
     44 H         114.7464  153.2047  144.3930 H       1  UNL111      0.0988
     45 H         114.3681  151.0615  148.8381 H       1  UNL111      0.0890
     46 H         112.8249  151.7843  144.9040 H       1  UNL111      0.0890
     47 H         125.3143  155.0359  146.7052 H       1  UNL111      0.0893
     48 H         124.7274  150.8941  145.5847 H       1  UNL111      0.0893
     49 H         112.6202  150.6889  147.1191 H       1  UNL111      0.0876
     50 H         127.6022  154.4935  147.4352 H       1  UNL111      0.0876
     51 H         127.0209  150.3895  146.3240 H       1  UNL111      0.0876
     52 H         128.4608  152.1783  147.2504 H       1  UNL111      0.0874
@<TRIPOS>UNITY_ATOM_ATTR
1 1
charge 1
@<TRIPOS>BOND
     1     1     6    1
     2     1     7    1
     3     1     8    1
     4     2     3    1
     5     2     9    1
     6     2    10    1
     7     3     4    1
     8     3     5    1
     9     4     6    1
    10     5     7    1
    11     8    11    1
    12     9    12    1
    13    10    14   ar
    14    10    15   ar
    15    11    13    1
    16    13    18   ar
    17    13    19   ar
    18    14    16   ar
    19    15    17   ar
    20    16    20   ar
    21    17    20   ar
    22    18    21   ar
    23    19    22   ar
    24    21    23   ar
    25    22    23   ar
    26     1    24    1
    27     3    25    1
    28     4    26    1
    29     4    27    1
    30     5    28    1
    31     5    29    1
    32     6    30    1
    33     6    31    1
    34     7    32    1
    35     7    33    1
    36     8    34    1
    37     8    35    1
    38     9    36    1
    39     9    37    1
    40    11    38    1
    41    11    39    1
    42    12    40    1
    43    12    41    1
    44    12    42    1
    45    14    43    1
    46    15    44    1
    47    16    45    1
    48    17    46    1
    49    18    47    1
    50    19    48    1
    51    20    49    1
    52    21    50    1
    53    22    51    1
    54    23    52    1
@<TRIPOS>MOLECULE
165361467
 65 67 0 0 0
SMALL
GASTEIGER

@<TRIPOS>ATOM
      1 O         117.1762  150.9657  145.3121 O.2     1  UNL111     -0.3824
      2 O         123.4252  151.0362  146.6577 O.2     1  UNL111     -0.5816
      3 O         127.3575  154.8421  145.7523 O.2     1  UNL111     -0.5830
      4 N         120.2763  153.3540  146.8081 N.4     1  UNL111      0.4273
      5 N         116.0911  152.6967  146.3652 N.am    1  UNL111     -0.2907
      6 C         117.3720  153.3267  146.7673 C.3     1  UNL111      0.0176
      7 C         118.1982  153.7613  145.5433 C.3     1  UNL111     -0.0328
      8 C         118.1743  152.4432  147.7365 C.3     1  UNL111     -0.0328
      9 C         119.5388  154.3485  145.9464 C.3     1  UNL111     -0.0364
     10 C         119.5182  153.0607  148.0830 C.3     1  UNL111     -0.0364
     11 C         121.7650  153.6596  147.0540 C.3     1  UNL111     -0.0339
     12 C         122.5541  153.5011  145.7341 C.3     1  UNL111     -0.0133
     13 C         121.9485  155.0446  147.6755 C.3     1  UNL111     -0.0586
     14 C         114.9021  153.4502  146.5977 C.3     1  UNL111     -0.0054
     15 C         116.1123  151.4657  145.6919 C.2     1  UNL111      0.1497
     16 C         124.0193  153.2086  145.9716 C.3     1  UNL111     -0.0039
     17 C         114.7937  150.7213  145.5066 C.3     1  UNL111      0.0336
     18 C         114.6495  153.9997  147.8618 C.3     1  UNL111     -0.0556
     19 C         113.9956  153.6980  145.5601 C.3     1  UNL111     -0.0556
     20 C         124.4300  151.9458  146.4418 C.3     1  UNL111      0.0439
     21 C         124.9796  154.2079  145.7220 C.3     1  UNL111     -0.0097
     22 C         115.0088  149.2259  145.3267 C.3     1  UNL111     -0.0446
     23 C         126.3330  153.9605  145.9475 C.3     1  UNL111      0.0393
     24 C         113.4990  154.7589  148.0892 C.3     1  UNL111     -0.0787
     25 C         112.8474  154.4606  145.7878 C.3     1  UNL111     -0.0787
     26 C         125.7843  151.7080  146.6740 C.3     1  UNL111     -0.0143
     27 C         126.7249  152.7119  146.4287 C.3     1  UNL111     -0.0154
     28 C         112.5981  154.9876  147.0524 C.3     1  UNL111     -0.0844
     29 C         123.8274  149.6890  146.9000 C.3     1  UNL111      0.0297
     30 C         127.0410  156.0911  145.1513 C.3     1  UNL111      0.0294
     31 H         120.2871  152.4601  146.2886 H       1  UNL111      0.1335
     32 H         117.1472  154.2543  147.3109 H       1  UNL111      0.0863
     33 H         117.6340  154.5039  144.9656 H       1  UNL111      0.0551
     34 H         118.3814  152.9261  144.8602 H       1  UNL111      0.0551
     35 H         118.3525  151.4464  147.3205 H       1  UNL111      0.0551
     36 H         117.5963  152.2868  148.6555 H       1  UNL111      0.0551
     37 H         120.1443  154.5490  145.0585 H       1  UNL111      0.0743
     38 H         119.4160  155.2718  146.5220 H       1  UNL111      0.0743
     39 H         119.4002  153.9999  148.6327 H       1  UNL111      0.0743
     40 H         120.1155  152.3612  148.6766 H       1  UNL111      0.0743
     41 H         122.0889  152.9060  147.7801 H       1  UNL111      0.0801
     42 H         122.4504  154.4018  145.1160 H       1  UNL111      0.0636
     43 H         122.1425  152.6834  145.1276 H       1  UNL111      0.0636
     44 H         121.6660  155.8442  146.9835 H       1  UNL111      0.0404
     45 H         122.9971  155.2048  147.9480 H       1  UNL111      0.0404
     46 H         121.3600  155.1600  148.5903 H       1  UNL111      0.0404
     47 H         114.2918  151.1069  144.6150 H       1  UNL111      0.0734
     48 H         114.1500  150.8763  146.3781 H       1  UNL111      0.0734
     49 H         115.3161  153.8118  148.6985 H       1  UNL111      0.0993
     50 H         114.1828  153.3404  144.5512 H       1  UNL111      0.0993
     51 H         124.6523  155.1744  145.3517 H       1  UNL111      0.1159
     52 H         115.5979  149.0163  144.4277 H       1  UNL111      0.0319
     53 H         114.0472  148.7124  145.2294 H       1  UNL111      0.0319
     54 H         115.5408  148.8007  146.1841 H       1  UNL111      0.0319
     55 H         113.2982  155.1649  149.0782 H       1  UNL111      0.0890
     56 H         112.1491  154.6494  144.9752 H       1  UNL111      0.0890
     57 H         126.1509  150.7576  147.0489 H       1  UNL111      0.1140
     58 H         127.7800  152.5153  146.6112 H       1  UNL111      0.1137
     59 H         111.7009  155.5770  147.2291 H       1  UNL111      0.0876
     60 H         122.9227  149.0744  146.9348 H       1  UNL111      0.1069
     61 H         124.3275  149.6000  147.8697 H       1  UNL111      0.1069
     62 H         124.4579  149.3092  146.0891 H       1  UNL111      0.1069
     63 H         127.9751  156.6451  145.0177 H       1  UNL111      0.1069
     64 H         126.3905  156.6851  145.8015 H       1  UNL111      0.1069
     65 H         126.5905  155.9521  144.1629 H       1  UNL111      0.1069
@<TRIPOS>UNITY_ATOM_ATTR
4 1
charge 1
@<TRIPOS>BOND
     1     1    15    2
     2     2    20    1
     3     2    29    1
     4     3    23    1
     5     3    30    1
     6     4     9    1
     7     4    10    1
     8     4    11    1
     9     5     6    1
    10     5    14    1
    11     5    15   am
    12     6     7    1
    13     6     8    1
    14     7     9    1
    15     8    10    1
    16    11    12    1
    17    11    13    1
    18    12    16    1
    19    14    18   ar
    20    14    19   ar
    21    15    17    1
    22    16    20   ar
    23    16    21   ar
    24    17    22    1
    25    18    24   ar
    26    19    25   ar
    27    20    26   ar
    28    21    23   ar
    29    23    27   ar
    30    24    28   ar
    31    25    28   ar
    32    26    27   ar
    33     4    31    1
    34     6    32    1
    35     7    33    1
    36     7    34    1
    37     8    35    1
    38     8    36    1
    39     9    37    1
    40     9    38    1
    41    10    39    1
    42    10    40    1
    43    11    41    1
    44    12    42    1
    45    12    43    1
    46    13    44    1
    47    13    45    1
    48    13    46    1
    49    17    47    1
    50    17    48    1
    51    18    49    1
    52    19    50    1
    53    21    51    1
    54    22    52    1
    55    22    53    1
    56    22    54    1
    57    24    55    1
    58    25    56    1
    59    26    57    1
    60    27    58    1
    61    28    59    1
    62    29    60    1
    63    29    61    1
    64    29    62    1
    65    30    63    1
    66    30    64    1
    67    30    65    1
@<TRIPOS>MOLECULE
165361531
 48 50 0 0 0
SMALL
GASTEIGER

@<TRIPOS>ATOM
      1 O         120.5410  155.0937  147.1210 O.2     1  UNL111     -0.3654
      2 N         124.4351  153.6873  146.3490 N.4     1  UNL111      0.4253
      3 N         120.2451  152.9487  146.3163 N.am    1  UNL111     -0.2800
      4 C         121.7012  152.7365  146.1466 C.3     1  UNL111      0.0198
      5 C         122.3050  153.6915  145.1038 C.3     1  UNL111     -0.0329
      6 C         122.4426  152.7909  147.4936 C.3     1  UNL111     -0.0329
      7 C         123.8089  153.5237  144.9887 C.3     1  UNL111     -0.0380
      8 C         123.9424  152.6459  147.3201 C.3     1  UNL111     -0.0380
      9 C         119.4235  151.7846  146.2264 C.3     1  UNL111     -0.0004
     10 C         125.9362  153.7219  146.2768 C.3     1  UNL111     -0.0456
     11 C         119.7741  154.2086  146.7330 C.2     1  UNL111      0.1920
     12 C         118.6391  151.3190  147.2997 C.3     1  UNL111     -0.0539
     13 C         119.4289  151.0715  145.0142 C.3     1  UNL111     -0.0542
     14 C         118.3267  154.5478  146.6515 C.3     1  UNL111      0.0431
     15 C         117.8239  150.1894  147.1006 C.3     1  UNL111     -0.0760
     16 C         118.6329  151.9333  148.6728 C.3     1  UNL111     -0.0363
     17 C         118.6271  149.9438  144.8425 C.3     1  UNL111     -0.0783
     18 C         117.8172  149.5086  145.8838 C.3     1  UNL111     -0.0834
     19 C         117.7697  155.3228  147.6780 C.3     1  UNL111     -0.0495
     20 C         117.5399  154.1892  145.5510 C.3     1  UNL111     -0.0495
     21 C         116.4236  155.6876  147.6297 C.3     1  UNL111     -0.0799
     22 C         116.1929  154.5552  145.5073 C.3     1  UNL111     -0.0799
     23 C         115.6353  155.2977  146.5480 C.3     1  UNL111     -0.0854
     24 H         124.1411  154.6082  146.7132 H       1  UNL111      0.1304
     25 H         121.8577  151.7204  145.7580 H       1  UNL111      0.0867
     26 H         122.0953  154.7381  145.3473 H       1  UNL111      0.0551
     27 H         121.8406  153.5103  144.1268 H       1  UNL111      0.0551
     28 H         122.0738  151.9928  148.1495 H       1  UNL111      0.0551
     29 H         122.2467  153.7289  148.0228 H       1  UNL111      0.0551
     30 H         124.0844  152.5331  144.6097 H       1  UNL111      0.0738
     31 H         124.2319  154.2930  144.3342 H       1  UNL111      0.0738
     32 H         124.4568  152.8112  148.2726 H       1  UNL111      0.0738
     33 H         124.2179  151.6618  146.9248 H       1  UNL111      0.0738
     34 H         126.2893  152.7598  145.8961 H       1  UNL111      0.0663
     35 H         126.3200  153.9109  147.2828 H       1  UNL111      0.0663
     36 H         126.2251  154.5382  145.6097 H       1  UNL111      0.0663
     37 H         120.0213  151.4163  144.1709 H       1  UNL111      0.0996
     38 H         117.1916  149.8228  147.9086 H       1  UNL111      0.0905
     39 H         119.5286  152.5293  148.8660 H       1  UNL111      0.0411
     40 H         118.6195  151.1481  149.4376 H       1  UNL111      0.0411
     41 H         117.7450  152.5571  148.8064 H       1  UNL111      0.0411
     42 H         118.6199  149.4147  143.8926 H       1  UNL111      0.0891
     43 H         117.1804  148.6363  145.7534 H       1  UNL111      0.0879
     44 H         118.3809  155.6414  148.5194 H       1  UNL111      0.0967
     45 H         117.9595  153.6377  144.7158 H       1  UNL111      0.0967
     46 H         115.9900  156.2804  148.4318 H       1  UNL111      0.0884
     47 H         115.5777  154.2681  144.6575 H       1  UNL111      0.0884
     48 H         114.5863  155.5835  146.5097 H       1  UNL111      0.0875
@<TRIPOS>UNITY_ATOM_ATTR
2 1
charge 1
@<TRIPOS>BOND
     1     1    11    2
     2     2     7    1
     3     2     8    1
     4     2    10    1
     5     3     4    1
     6     3     9    1
     7     3    11   am
     8     4     5    1
     9     4     6    1
    10     5     7    1
    11     6     8    1
    12     9    12   ar
    13     9    13   ar
    14    11    14    1
    15    12    15   ar
    16    12    16    1
    17    13    17   ar
    18    14    19   ar
    19    14    20   ar
    20    15    18   ar
    21    17    18   ar
    22    19    21   ar
    23    20    22   ar
    24    21    23   ar
    25    22    23   ar
    26     2    24    1
    27     4    25    1
    28     5    26    1
    29     5    27    1
    30     6    28    1
    31     6    29    1
    32     7    30    1
    33     7    31    1
    34     8    32    1
    35     8    33    1
    36    10    34    1
    37    10    35    1
    38    10    36    1
    39    13    37    1
    40    15    38    1
    41    16    39    1
    42    16    40    1
    43    16    41    1
    44    17    42    1
    45    18    43    1
    46    19    44    1
    47    20    45    1
    48    21    46    1
    49    22    47    1
    50    23    48    1
@<TRIPOS>MOLECULE
91736720
 54 56 0 0 0
SMALL
GASTEIGER

@<TRIPOS>ATOM
      1 O         117.3987  150.4012  146.2104 O.2     1  UNL111     -0.3837
      2 N         120.7457  152.8878  146.7136 N.4     1  UNL111      0.4267
      3 N         116.5016  152.5032  146.4964 N.am    1  UNL111     -0.2915
      4 C         117.8429  153.1191  146.6408 C.3     1  UNL111      0.0174
      5 C         118.6791  152.9631  145.3591 C.3     1  UNL111     -0.0330
      6 C         118.5831  152.6105  147.8870 C.3     1  UNL111     -0.0330
      7 C         120.0762  153.5317  145.5221 C.3     1  UNL111     -0.0370
      8 C         119.9848  153.1843  147.9863 C.3     1  UNL111     -0.0370
      9 C         122.2133  153.2731  146.8497 C.3     1  UNL111     -0.0358
     10 C         123.0814  152.5466  145.8183 C.3     1  UNL111     -0.0312
     11 C         115.3894  153.3914  146.3809 C.3     1  UNL111     -0.0055
     12 C         116.3996  151.1141  146.3523 C.2     1  UNL111      0.1472
     13 C         124.5347  152.8884  146.0180 C.3     1  UNL111     -0.0749
     14 C         114.4690  153.2567  145.3338 C.3     1  UNL111     -0.0556
     15 C         115.2259  154.4453  147.2904 C.3     1  UNL111     -0.0556
     16 C         115.0364  150.4681  146.4538 C.3     1  UNL111      0.0310
     17 C         125.0986  153.9959  145.3717 C.3     1  UNL111     -0.0801
     18 C         125.3336  152.1235  146.8773 C.3     1  UNL111     -0.0801
     19 C         113.3978  154.1452  145.2100 C.3     1  UNL111     -0.0787
     20 C         114.1520  155.3308  147.1679 C.3     1  UNL111     -0.0787
     21 C         126.4372  154.3327  145.5838 C.3     1  UNL111     -0.0830
     22 C         126.6718  152.4634  147.0879 C.3     1  UNL111     -0.0830
     23 C         113.2383  155.1797  146.1282 C.3     1  UNL111     -0.0844
     24 C         127.2302  153.5783  146.4543 C.3     1  UNL111     -0.0852
     25 C         128.6796  153.9164  146.6497 C.3     1  UNL111     -0.0437
     26 H         120.7134  151.8641  146.5793 H       1  UNL111      0.1323
     27 H         117.7181  154.2015  146.7767 H       1  UNL111      0.0863
     28 H         118.1738  153.4706  144.5281 H       1  UNL111      0.0550
     29 H         118.7700  151.9145  145.0591 H       1  UNL111      0.0550
     30 H         118.6596  151.5183  147.8927 H       1  UNL111      0.0550
     31 H         118.0146  152.8771  148.7863 H       1  UNL111      0.0550
     32 H         120.6738  153.3120  144.6338 H       1  UNL111      0.0741
     33 H         120.0629  154.6143  145.6904 H       1  UNL111      0.0741
     34 H         119.9784  154.2710  148.1261 H       1  UNL111      0.0741
     35 H         120.5255  152.7144  148.8146 H       1  UNL111      0.0741
     36 H         122.5250  152.9888  147.8617 H       1  UNL111      0.0751
     37 H         122.2771  154.3638  146.7603 H       1  UNL111      0.0751
     38 H         122.7914  152.8109  144.7954 H       1  UNL111      0.0589
     39 H         122.9441  151.4612  145.9017 H       1  UNL111      0.0589
     40 H         114.5867  152.4880  144.5749 H       1  UNL111      0.0993
     41 H         115.8997  154.5698  148.1331 H       1  UNL111      0.0993
     42 H         115.1554  149.4685  146.8847 H       1  UNL111      0.0685
     43 H         114.5986  150.3615  145.4588 H       1  UNL111      0.0685
     44 H         114.3664  151.0253  147.1123 H       1  UNL111      0.0685
     45 H         124.5130  154.6040  144.6856 H       1  UNL111      0.0896
     46 H         124.9342  151.2479  147.3848 H       1  UNL111      0.0896
     47 H         112.6895  154.0335  144.3918 H       1  UNL111      0.0890
     48 H         114.0201  156.1337  147.8897 H       1  UNL111      0.0890
     49 H         126.8632  155.1870  145.0604 H       1  UNL111      0.0890
     50 H         127.2823  151.8486  147.7472 H       1  UNL111      0.0890
     51 H         112.4007  155.8673  146.0334 H       1  UNL111      0.0876
     52 H         128.8503  154.9911  146.5272 H       1  UNL111      0.0395
     53 H         129.2913  153.3757  145.9210 H       1  UNL111      0.0395
     54 H         129.0094  153.6484  147.6589 H       1  UNL111      0.0395
@<TRIPOS>UNITY_ATOM_ATTR
2 1
charge 1
@<TRIPOS>BOND
     1     1    12    2
     2     2     7    1
     3     2     8    1
     4     2     9    1
     5     3     4    1
     6     3    11    1
     7     3    12   am
     8     4     5    1
     9     4     6    1
    10     5     7    1
    11     6     8    1
    12     9    10    1
    13    10    13    1
    14    11    14   ar
    15    11    15   ar
    16    12    16    1
    17    13    17   ar
    18    13    18   ar
    19    14    19   ar
    20    15    20   ar
    21    17    21   ar
    22    18    22   ar
    23    19    23   ar
    24    20    23   ar
    25    21    24   ar
    26    22    24   ar
    27    24    25    1
    28     2    26    1
    29     4    27    1
    30     5    28    1
    31     5    29    1
    32     6    30    1
    33     6    31    1
    34     7    32    1
    35     7    33    1
    36     8    34    1
    37     8    35    1
    38     9    36    1
    39     9    37    1
    40    10    38    1
    41    10    39    1
    42    14    40    1
    43    15    41    1
    44    16    42    1
    45    16    43    1
    46    16    44    1
    47    17    45    1
    48    18    46    1
    49    19    47    1
    50    20    48    1
    51    21    49    1
    52    22    50    1
    53    23    51    1
    54    25    52    1
    55    25    53    1
    56    25    54    1
@<TRIPOS>MOLECULE
527015
 51 53 0 0 0
SMALL
GASTEIGER

@<TRIPOS>ATOM
      1 O         116.4062  150.0741  146.2080 O.2     1  UNL111     -0.3837
      2 N         120.9519  152.7436  146.2327 N.4     1  UNL111      0.4267
      3 N         116.6681  152.3226  146.6156 N.am    1  UNL111     -0.2915
      4 C         118.1294  152.1368  146.6922 C.3     1  UNL111      0.0174
      5 C         118.7540  152.0841  145.2896 C.3     1  UNL111     -0.0330
      6 C         118.8919  153.1423  147.5627 C.3     1  UNL111     -0.0330
      7 C         120.2285  151.7322  145.3651 C.3     1  UNL111     -0.0370
      8 C         120.3713  152.7913  147.6287 C.3     1  UNL111     -0.0370
      9 C         122.4543  152.4732  146.2249 C.3     1  UNL111     -0.0358
     10 C         123.2466  153.6920  146.7062 C.3     1  UNL111     -0.0312
     11 C         116.1448  153.6292  146.4460 C.3     1  UNL111     -0.0055
     12 C         115.8908  151.1834  146.3691 C.2     1  UNL111      0.1472
     13 C         124.7268  153.4537  146.5602 C.3     1  UNL111     -0.0753
     14 C         116.0118  154.4783  147.5482 C.3     1  UNL111     -0.0556
     15 C         115.7438  154.0664  145.1789 C.3     1  UNL111     -0.0556
     16 C         114.3895  151.3482  146.3167 C.3     1  UNL111      0.0310
     17 C         125.4489  152.8243  147.5840 C.3     1  UNL111     -0.0811
     18 C         125.3941  153.8263  145.3849 C.3     1  UNL111     -0.0811
     19 C         115.4976  155.7648  147.3804 C.3     1  UNL111     -0.0787
     20 C         115.2321  155.3541  145.0145 C.3     1  UNL111     -0.0787
     21 C         115.1122  156.2029  146.1141 C.3     1  UNL111     -0.0844
     22 C         126.8137  152.5754  147.4340 C.3     1  UNL111     -0.0857
     23 C         126.7590  153.5750  145.2391 C.3     1  UNL111     -0.0857
     24 C         127.4676  152.9492  146.2622 C.3     1  UNL111     -0.0868
     25 H         120.8140  153.6664  145.7955 H       1  UNL111      0.1323
     26 H         118.2876  151.1522  147.1553 H       1  UNL111      0.0863
     27 H         118.6301  153.0498  144.7832 H       1  UNL111      0.0550
     28 H         118.2430  151.3408  144.6667 H       1  UNL111      0.0550
     29 H         118.4832  153.1452  148.5797 H       1  UNL111      0.0550
     30 H         118.7885  154.1599  147.1669 H       1  UNL111      0.0550
     31 H         120.3951  150.7407  145.8008 H       1  UNL111      0.0741
     32 H         120.6787  151.7741  144.3678 H       1  UNL111      0.0741
     33 H         120.9084  153.5595  148.1909 H       1  UNL111      0.0741
     34 H         120.5402  151.8137  148.0937 H       1  UNL111      0.0741
     35 H         122.7262  152.2373  145.1893 H       1  UNL111      0.0751
     36 H         122.6332  151.5861  146.8435 H       1  UNL111      0.0751
     37 H         123.0264  153.9193  147.7552 H       1  UNL111      0.0589
     38 H         122.9600  154.5837  146.1347 H       1  UNL111      0.0589
     39 H         116.2716  154.1397  148.5474 H       1  UNL111      0.0993
     40 H         115.8252  153.4154  144.3121 H       1  UNL111      0.0993
     41 H         113.9187  150.3794  146.5105 H       1  UNL111      0.0685
     42 H         114.0866  151.6899  145.3242 H       1  UNL111      0.0685
     43 H         114.0391  152.0465  147.0808 H       1  UNL111      0.0685
     44 H         124.9660  152.5287  148.5129 H       1  UNL111      0.0893
     45 H         124.8677  154.3231  144.5728 H       1  UNL111      0.0893
     46 H         115.3791  156.4221  148.2391 H       1  UNL111      0.0890
     47 H         114.9151  155.6945  144.0310 H       1  UNL111      0.0890
     48 H         114.7012  157.2024  145.9866 H       1  UNL111      0.0876
     49 H         127.3732  152.0942  148.2335 H       1  UNL111      0.0876
     50 H         127.2757  153.8721  144.3289 H       1  UNL111      0.0876
     51 H         128.5327  152.7590  146.1490 H       1  UNL111      0.0874
@<TRIPOS>UNITY_ATOM_ATTR
2 1
charge 1
@<TRIPOS>BOND
     1     1    12    2
     2     2     7    1
     3     2     8    1
     4     2     9    1
     5     3     4    1
     6     3    11    1
     7     3    12   am
     8     4     5    1
     9     4     6    1
    10     5     7    1
    11     6     8    1
    12     9    10    1
    13    10    13    1
    14    11    14   ar
    15    11    15   ar
    16    12    16    1
    17    13    17   ar
    18    13    18   ar
    19    14    19   ar
    20    15    20   ar
    21    17    22   ar
    22    18    23   ar
    23    19    21   ar
    24    20    21   ar
    25    22    24   ar
    26    23    24   ar
    27     2    25    1
    28     4    26    1
    29     5    27    1
    30     5    28    1
    31     6    29    1
    32     6    30    1
    33     7    31    1
    34     7    32    1
    35     8    33    1
    36     8    34    1
    37     9    35    1
    38     9    36    1
    39    10    37    1
    40    10    38    1
    41    14    39    1
    42    15    40    1
    43    16    41    1
    44    16    42    1
    45    16    43    1
    46    17    44    1
    47    18    45    1
    48    19    46    1
    49    20    47    1
    50    21    48    1
    51    22    49    1
    52    23    50    1
    53    24    51    1
@<TRIPOS>MOLECULE
259381
 38 39 0 0 0
SMALL
GASTEIGER

@<TRIPOS>ATOM
      1 O         120.1873  155.8529  145.9110 O.2     1  UNL111     -0.3824
      2 N         120.1015  153.6577  146.5718 N.am    1  UNL111     -0.2907
      3 N         115.9008  152.8658  146.2498 N.4     1  UNL111      0.4316
      4 C         118.6302  153.7334  146.6205 C.3     1  UNL111      0.0174
      5 C         117.9438  152.7872  147.6188 C.3     1  UNL111     -0.0330
      6 C         118.0180  153.5625  145.2182 C.3     1  UNL111     -0.0330
      7 C         116.4412  153.0194  147.6328 C.3     1  UNL111     -0.0336
      8 C         116.5181  153.7897  145.2515 C.3     1  UNL111     -0.0336
      9 C         120.7276  152.3876  146.5918 C.3     1  UNL111     -0.0054
     10 C         120.7958  154.8188  146.1978 C.2     1  UNL111      0.1497
     11 C         122.3186  154.7491  146.1784 C.3     1  UNL111      0.0336
     12 C         120.9635  151.7458  147.8106 C.3     1  UNL111     -0.0556
     13 C         121.1192  151.7787  145.3950 C.3     1  UNL111     -0.0556
     14 C         122.9533  156.1246  146.0526 C.3     1  UNL111     -0.0446
     15 C         121.5749  150.4917  147.8304 C.3     1  UNL111     -0.0787
     16 C         121.7295  150.5244  145.4190 C.3     1  UNL111     -0.0787
     17 C         121.9540  149.8808  146.6355 C.3     1  UNL111     -0.0844
     18 H         114.8834  153.0274  146.2673 H       1  UNL111      0.1345
     19 H         116.0155  151.8904  145.9368 H       1  UNL111      0.1345
     20 H         118.3875  154.7521  146.9556 H       1  UNL111      0.0863
     21 H         118.3399  152.9506  148.6275 H       1  UNL111      0.0549
     22 H         118.1377  151.7396  147.3582 H       1  UNL111      0.0549
     23 H         118.2293  152.5561  144.8349 H       1  UNL111      0.0549
     24 H         118.4710  154.2655  144.5097 H       1  UNL111      0.0549
     25 H         115.9281  152.2834  148.2587 H       1  UNL111      0.0737
     26 H         116.1810  154.0265  147.9751 H       1  UNL111      0.0737
     27 H         116.2594  154.8115  145.5479 H       1  UNL111      0.0737
     28 H         116.0568  153.5672  144.2849 H       1  UNL111      0.0737
     29 H         122.6355  154.1368  145.3287 H       1  UNL111      0.0734
     30 H         122.6711  154.2797  147.1028 H       1  UNL111      0.0734
     31 H         120.7034  152.2234  148.7513 H       1  UNL111      0.0993
     32 H         120.9602  152.2723  144.4397 H       1  UNL111      0.0993
     33 H         122.6561  156.6120  145.1181 H       1  UNL111      0.0319
     34 H         124.0446  156.0426  146.0619 H       1  UNL111      0.0319
     35 H         122.6508  156.7735  146.8811 H       1  UNL111      0.0319
     36 H         121.7727  149.9951  148.7779 H       1  UNL111      0.0890
     37 H         122.0428  150.0512  144.4908 H       1  UNL111      0.0890
     38 H         122.4412  148.9078  146.6534 H       1  UNL111      0.0876
@<TRIPOS>UNITY_ATOM_ATTR
3 1
charge 1
@<TRIPOS>BOND
     1     1    10    2
     2     2     4    1
     3     2     9    1
     4     2    10   am
     5     3     7    1
     6     3     8    1
     7     4     5    1
     8     4     6    1
     9     5     7    1
    10     6     8    1
    11     9    12   ar
    12     9    13   ar
    13    10    11    1
    14    11    14    1
    15    12    15   ar
    16    13    16   ar
    17    15    17   ar
    18    16    17   ar
    19     3    18    1
    20     3    19    1
    21     4    20    1
    22     5    21    1
    23     5    22    1
    24     6    23    1
    25     6    24    1
    26     7    25    1
    27     7    26    1
    28     8    27    1
    29     8    28    1
    30    11    29    1
    31    11    30    1
    32    12    31    1
    33    13    32    1
    34    14    33    1
    35    14    34    1
    36    14    35    1
    37    15    36    1
    38    16    37    1
    39    17    38    1
@<TRIPOS>MOLECULE
21595398
 60 62 0 0 0
SMALL
GASTEIGER

@<TRIPOS>ATOM
      1 O         118.0637  154.8496  145.2756 O.2     1  UNL111     -0.3821
      2 N         121.5975  152.7326  146.0498 N.4     1  UNL111      0.4267
      3 N         117.3379  152.8929  146.2389 N.am    1  UNL111     -0.2906
      4 C         118.7246  152.3885  146.3842 C.3     1  UNL111      0.0176
      5 C         119.4106  152.2035  145.0199 C.3     1  UNL111     -0.0330
      6 C         119.5548  153.2543  147.3443 C.3     1  UNL111     -0.0330
      7 C         120.8525  151.7549  145.1680 C.3     1  UNL111     -0.0370
      8 C         120.9931  152.7791  147.4334 C.3     1  UNL111     -0.0370
      9 C         123.0906  152.4299  146.0674 C.3     1  UNL111     -0.0358
     10 C         123.9041  153.6576  146.4879 C.3     1  UNL111     -0.0312
     11 C         117.1301  154.1886  145.7425 C.2     1  UNL111      0.1506
     12 C         116.2816  151.9718  146.5098 C.3     1  UNL111     -0.0053
     13 C         115.7339  154.7951  145.8641 C.3     1  UNL111      0.0360
     14 C         125.3765  153.3397  146.4947 C.3     1  UNL111     -0.0753
     15 C         115.7621  156.3205  145.9995 C.3     1  UNL111     -0.0394
     16 C         115.2505  151.7712  145.5837 C.3     1  UNL111     -0.0556
     17 C         116.2842  151.2169  147.6907 C.3     1  UNL111     -0.0556
     18 C         116.3212  156.7723  147.3512 C.3     1  UNL111     -0.0619
     19 C         125.9874  152.8374  147.6526 C.3     1  UNL111     -0.0811
     20 C         126.1469  153.5089  145.3360 C.3     1  UNL111     -0.0811
     21 C         114.2324  150.8501  145.8423 C.3     1  UNL111     -0.0787
     22 C         115.2637  150.2985  147.9497 C.3     1  UNL111     -0.0787
     23 C         114.2379  150.1166  147.0259 C.3     1  UNL111     -0.0844
     24 C         116.3108  158.2876  147.4776 C.3     1  UNL111     -0.0693
     25 C         127.3445  152.5131  147.6503 C.3     1  UNL111     -0.0857
     26 C         127.5037  153.1828  145.3380 C.3     1  UNL111     -0.0857
     27 C         128.1014  152.6844  146.4935 C.3     1  UNL111     -0.0868
     28 H         121.4822  153.6650  145.6204 H       1  UNL111      0.1323
     29 H         118.6867  151.3850  146.8286 H       1  UNL111      0.0863
     30 H         119.3987  153.1260  144.4313 H       1  UNL111      0.0550
     31 H         118.8573  151.4634  144.4288 H       1  UNL111      0.0550
     32 H         119.1006  153.2337  148.3425 H       1  UNL111      0.0550
     33 H         119.5604  154.3055  147.0385 H       1  UNL111      0.0550
     34 H         120.9336  150.7630  145.6262 H       1  UNL111      0.0741
     35 H         121.3461  151.7458  144.1905 H       1  UNL111      0.0741
     36 H         121.5785  153.4753  148.0395 H       1  UNL111      0.0741
     37 H         121.0675  151.7746  147.8647 H       1  UNL111      0.0741
     38 H         123.3702  152.1328  145.0497 H       1  UNL111      0.0751
     39 H         123.2441  151.5730  146.7335 H       1  UNL111      0.0751
     40 H         123.6127  154.0095  147.4835 H       1  UNL111      0.0589
     41 H         123.7106  154.4933  145.8036 H       1  UNL111      0.0589
     42 H         115.1989  154.3747  146.7211 H       1  UNL111      0.0747
     43 H         115.1847  154.5454  144.9503 H       1  UNL111      0.0747
     44 H         114.7369  156.6967  145.8937 H       1  UNL111      0.0381
     45 H         116.3483  156.7654  145.1865 H       1  UNL111      0.0381
     46 H         115.2386  152.2948  144.6316 H       1  UNL111      0.0993
     47 H         117.0497  151.3604  148.4476 H       1  UNL111      0.0993
     48 H         117.3482  156.4126  147.4788 H       1  UNL111      0.0312
     49 H         115.7243  156.3405  148.1630 H       1  UNL111      0.0312
     50 H         125.4224  152.7022  148.5723 H       1  UNL111      0.0893
     51 H         125.7082  153.9046  144.4224 H       1  UNL111      0.0893
     52 H         113.4364  150.7001  145.1160 H       1  UNL111      0.0890
     53 H         115.2609  149.7311  148.8777 H       1  UNL111      0.0890
     54 H         113.4415  149.4035  147.2280 H       1  UNL111      0.0876
     55 H         116.9248  158.7501  146.6983 H       1  UNL111      0.0256
     56 H         116.7123  158.5893  148.4501 H       1  UNL111      0.0256
     57 H         115.2931  158.6816  147.3933 H       1  UNL111      0.0256
     58 H         127.8175  152.1324  148.5529 H       1  UNL111      0.0876
     59 H         128.1011  153.3231  144.4396 H       1  UNL111      0.0876
     60 H         129.1607  152.4368  146.4949 H       1  UNL111      0.0874
@<TRIPOS>UNITY_ATOM_ATTR
2 1
charge 1
@<TRIPOS>BOND
     1     1    11    2
     2     2     7    1
     3     2     8    1
     4     2     9    1
     5     3     4    1
     6     3    11   am
     7     3    12    1
     8     4     5    1
     9     4     6    1
    10     5     7    1
    11     6     8    1
    12     9    10    1
    13    10    14    1
    14    11    13    1
    15    12    16   ar
    16    12    17   ar
    17    13    15    1
    18    14    19   ar
    19    14    20   ar
    20    15    18    1
    21    16    21   ar
    22    17    22   ar
    23    18    24    1
    24    19    25   ar
    25    20    26   ar
    26    21    23   ar
    27    22    23   ar
    28    25    27   ar
    29    26    27   ar
    30     2    28    1
    31     4    29    1
    32     5    30    1
    33     5    31    1
    34     6    32    1
    35     6    33    1
    36     7    34    1
    37     7    35    1
    38     8    36    1
    39     8    37    1
    40     9    38    1
    41     9    39    1
    42    10    40    1
    43    10    41    1
    44    13    42    1
    45    13    43    1
    46    15    44    1
    47    15    45    1
    48    16    46    1
    49    17    47    1
    50    18    48    1
    51    18    49    1
    52    19    50    1
    53    20    51    1
    54    21    52    1
    55    22    53    1
    56    23    54    1
    57    24    55    1
    58    24    56    1
    59    24    57    1
    60    25    58    1
    61    26    59    1
    62    27    60    1
@<TRIPOS>MOLECULE
137332293
 59 62 0 0 0
SMALL
GASTEIGER

@<TRIPOS>ATOM
      1 O         115.6199  154.7883  147.4944 O.3     1  UNL111     -0.4321
      2 O         118.1910  154.9310  145.3591 O.2     1  UNL111     -0.3677
      3 N         121.7972  152.8056  146.0581 N.4     1  UNL111      0.4267
      4 N         117.5313  152.8979  146.2021 N.am    1  UNL111     -0.2820
      5 C         118.9239  152.4163  146.3281 C.3     1  UNL111      0.0192
      6 C         119.6270  152.3321  144.9646 C.3     1  UNL111     -0.0328
      7 C         119.7284  153.2396  147.3447 C.3     1  UNL111     -0.0328
      8 C         121.0693  151.8820  145.1055 C.3     1  UNL111     -0.0370
      9 C         121.1691  152.7708  147.4322 C.3     1  UNL111     -0.0370
     10 C         123.2900  152.5020  146.0804 C.3     1  UNL111     -0.0358
     11 C         115.8692  154.8078  146.0756 C.3     1  UNL111      0.1058
     12 C         117.2815  154.2247  145.8112 C.2     1  UNL111      0.1860
     13 C         115.7298  156.2608  145.6342 C.3     1  UNL111     -0.0049
     14 C         116.4998  151.9351  146.3931 C.3     1  UNL111     -0.0036
     15 C         124.0954  153.6919  146.6103 C.3     1  UNL111     -0.0312
     16 C         116.0693  157.0239  146.8903 C.3     1  UNL111     -0.0266
     17 C         115.4758  156.1367  147.9588 C.3     1  UNL111      0.0098
     18 C         115.5565  151.6989  145.3859 C.3     1  UNL111     -0.0554
     19 C         116.4620  151.1587  147.5575 C.3     1  UNL111     -0.0554
     20 C         125.5714  153.3943  146.5637 C.3     1  UNL111     -0.0753
     21 C         114.5750  150.7195  145.5527 C.3     1  UNL111     -0.0787
     22 C         115.4772  150.1826  147.7245 C.3     1  UNL111     -0.0787
     23 C         126.2051  152.7764  147.6512 C.3     1  UNL111     -0.0811
     24 C         126.3227  153.6991  145.4201 C.3     1  UNL111     -0.0811
     25 C         114.5342  149.9642  146.7226 C.3     1  UNL111     -0.0844
     26 C         127.5657  152.4719  147.5947 C.3     1  UNL111     -0.0857
     27 C         127.6830  153.3922  145.3677 C.3     1  UNL111     -0.0857
     28 C         128.3033  152.7782  146.4535 C.3     1  UNL111     -0.0868
     29 H         121.6883  153.7618  145.6840 H       1  UNL111      0.1323
     30 H         118.8998  151.3878  146.7138 H       1  UNL111      0.0865
     31 H         119.6158  153.2949  144.4441 H       1  UNL111      0.0551
     32 H         119.0882  151.6313  144.3151 H       1  UNL111      0.0551
     33 H         119.2591  153.1645  148.3331 H       1  UNL111      0.0551
     34 H         119.7282  154.3047  147.0901 H       1  UNL111      0.0551
     35 H         121.1493  150.8636  145.5018 H       1  UNL111      0.0741
     36 H         121.5769  151.9368  144.1367 H       1  UNL111      0.0741
     37 H         121.7384  153.4377  148.0847 H       1  UNL111      0.0741
     38 H         121.2452  151.7445  147.8084 H       1  UNL111      0.0741
     39 H         123.5868  152.2848  145.0475 H       1  UNL111      0.0751
     40 H         123.4329  151.5960  146.6806 H       1  UNL111      0.0751
     41 H         115.1112  154.2106  145.5676 H       1  UNL111      0.1381
     42 H         114.6849  156.4606  145.3651 H       1  UNL111      0.0532
     43 H         116.3499  156.5395  144.7780 H       1  UNL111      0.0532
     44 H         123.8150  153.9365  147.6407 H       1  UNL111      0.0589
     45 H         123.8826  154.5900  146.0169 H       1  UNL111      0.0589
     46 H         115.6680  158.0404  146.9081 H       1  UNL111      0.0462
     47 H         117.1574  157.0809  147.0102 H       1  UNL111      0.0462
     48 H         115.9743  156.2490  148.9255 H       1  UNL111      0.0892
     49 H         114.4065  156.3339  148.0909 H       1  UNL111      0.0892
     50 H         115.5876  152.2473  144.4480 H       1  UNL111      0.0993
     51 H         117.1642  151.3332  148.3674 H       1  UNL111      0.0993
     52 H         113.8424  150.5423  144.7685 H       1  UNL111      0.0890
     53 H         115.4356  149.6001  148.6419 H       1  UNL111      0.0890
     54 H         125.6554  152.5339  148.5581 H       1  UNL111      0.0893
     55 H         125.8659  154.1862  144.5611 H       1  UNL111      0.0893
     56 H         113.7642  149.2073  146.8550 H       1  UNL111      0.0876
     57 H         128.0565  152.0007  148.4436 H       1  UNL111      0.0876
     58 H         128.2651  153.6373  144.4818 H       1  UNL111      0.0876
     59 H         129.3652  152.5454  146.4132 H       1  UNL111      0.0874
@<TRIPOS>UNITY_ATOM_ATTR
3 1
charge 1
@<TRIPOS>BOND
     1     1    11    1
     2     1    17    1
     3     2    12    2
     4     3     8    1
     5     3     9    1
     6     3    10    1
     7     4     5    1
     8     4    12   am
     9     4    14    1
    10     5     6    1
    11     5     7    1
    12     6     8    1
    13     7     9    1
    14    10    15    1
    15    11    12    1
    16    11    13    1
    17    13    16    1
    18    14    18   ar
    19    14    19   ar
    20    15    20    1
    21    16    17    1
    22    18    21   ar
    23    19    22   ar
    24    20    23   ar
    25    20    24   ar
    26    21    25   ar
    27    22    25   ar
    28    23    26   ar
    29    24    27   ar
    30    26    28   ar
    31    27    28   ar
    32     3    29    1
    33     5    30    1
    34     6    31    1
    35     6    32    1
    36     7    33    1
    37     7    34    1
    38     8    35    1
    39     8    36    1
    40     9    37    1
    41     9    38    1
    42    10    39    1
    43    10    40    1
    44    11    41    1
    45    13    42    1
    46    13    43    1
    47    15    44    1
    48    15    45    1
    49    16    46    1
    50    16    47    1
    51    17    48    1
    52    17    49    1
    53    18    50    1
    54    19    51    1
    55    21    52    1
    56    22    53    1
    57    23    54    1
    58    24    55    1
    59    25    56    1
    60    26    57    1
    61    27    58    1
    62    28    59    1
@<TRIPOS>MOLECULE
118796493
 61 63 0 0 0
SMALL
GASTEIGER

@<TRIPOS>ATOM
      1 O         118.7751  155.7239  145.8877 O.2     1  UNL111     -0.3822
      2 O         113.1476  150.5278  146.2219 O.2     1  UNL111     -0.5835
      3 N         121.9672  153.0215  146.0898 N.4     1  UNL111      0.4267
      4 N         117.7632  153.7073  146.3267 N.am    1  UNL111     -0.2900
      5 C         119.0654  152.9975  146.3437 C.3     1  UNL111      0.0176
      6 C         119.7600  153.0568  144.9728 C.3     1  UNL111     -0.0330
      7 C         119.9750  153.4820  147.4833 C.3     1  UNL111     -0.0330
      8 C         121.1248  152.3954  145.0003 C.3     1  UNL111     -0.0370
      9 C         121.3369  152.8122  147.4460 C.3     1  UNL111     -0.0370
     10 C         123.4067  152.5276  146.0182 C.3     1  UNL111     -0.0358
     11 C         124.3613  153.4715  146.7551 C.3     1  UNL111     -0.0312
     12 C         116.5878  152.8990  146.3388 C.3     1  UNL111      0.0002
     13 C         117.7444  155.1009  146.1628 C.2     1  UNL111      0.1505
     14 C         116.4293  155.8393  146.4040 C.3     1  UNL111      0.0353
     15 C         125.7868  153.0105  146.5964 C.3     1  UNL111     -0.0753
     16 C         116.4293  151.8907  147.2978 C.3     1  UNL111     -0.0395
     17 C         115.5968  153.0620  145.3669 C.3     1  UNL111     -0.0395
     18 C         116.6365  157.2753  146.8908 C.3     1  UNL111     -0.0413
     19 C         115.2892  151.0762  147.3018 C.3     1  UNL111     -0.0234
     20 C         114.4633  152.2440  145.3695 C.3     1  UNL111     -0.0234
     21 C         126.3396  152.0898  147.4979 C.3     1  UNL111     -0.0811
     22 C         126.5668  153.4685  145.5253 C.3     1  UNL111     -0.0811
     23 C         114.3000  151.2515  146.3366 C.3     1  UNL111      0.0350
     24 C         117.1813  157.3344  148.3112 C.3     1  UNL111     -0.0653
     25 C         127.6494  151.6383  147.3304 C.3     1  UNL111     -0.0857
     26 C         127.8759  153.0139  145.3615 C.3     1  UNL111     -0.0857
     27 C         128.4160  152.0989  146.2624 C.3     1  UNL111     -0.0868
     28 C         112.8936  149.5469  147.2203 C.3     1  UNL111      0.0293
     29 H         121.9869  154.0370  145.9017 H       1  UNL111      0.1323
     30 H         118.8791  151.9317  146.5319 H       1  UNL111      0.0863
     31 H         119.8863  154.0875  144.6270 H       1  UNL111      0.0550
     32 H         119.1312  152.5634  144.2214 H       1  UNL111      0.0550
     33 H         119.4940  153.2784  148.4478 H       1  UNL111      0.0550
     34 H         120.1273  154.5655  147.4470 H       1  UNL111      0.0550
     35 H         121.0610  151.3206  145.2034 H       1  UNL111      0.0741
     36 H         121.6399  152.5557  144.0473 H       1  UNL111      0.0741
     37 H         121.9909  153.2582  148.1997 H       1  UNL111      0.0741
     38 H         121.2685  151.7326  147.6200 H       1  UNL111      0.0741
     39 H         123.6756  152.4840  144.9562 H       1  UNL111      0.0751
     40 H         123.4259  151.5094  146.4238 H       1  UNL111      0.0751
     41 H         124.1231  153.5258  147.8230 H       1  UNL111      0.0589
     42 H         124.2601  154.4936  146.3689 H       1  UNL111      0.0589
     43 H         115.8111  155.3042  147.1317 H       1  UNL111      0.0745
     44 H         115.8934  155.8792  145.4500 H       1  UNL111      0.0745
     45 H         117.1646  151.7472  148.0846 H       1  UNL111      0.1028
     46 H         115.6994  153.7930  144.5696 H       1  UNL111      0.1028
     47 H         115.6726  157.7972  146.8654 H       1  UNL111      0.0369
     48 H         117.3106  157.8187  146.2189 H       1  UNL111      0.0369
     49 H         115.2007  150.3195  148.0750 H       1  UNL111      0.1120
     50 H         113.7000  152.3778  144.6052 H       1  UNL111      0.1120
     51 H         125.7669  151.7203  148.3456 H       1  UNL111      0.0893
     52 H         126.1734  154.1894  144.8116 H       1  UNL111      0.0893
     53 H         116.5100  156.8243  149.0095 H       1  UNL111      0.0262
     54 H         117.2773  158.3758  148.6344 H       1  UNL111      0.0262
     55 H         118.1686  156.8681  148.3820 H       1  UNL111      0.0262
     56 H         128.0787  150.9308  148.0366 H       1  UNL111      0.0876
     57 H         128.4814  153.3776  144.5340 H       1  UNL111      0.0876
     58 H         129.4388  151.7504  146.1365 H       1  UNL111      0.0874
     59 H         111.9258  149.0868  146.9989 H       1  UNL111      0.1069
     60 H         112.8277  150.0022  148.2139 H       1  UNL111      0.1069
     61 H         113.6518  148.7572  147.1968 H       1  UNL111      0.1069
@<TRIPOS>UNITY_ATOM_ATTR
3 1
charge 1
@<TRIPOS>BOND
     1     1    13    2
     2     2    23    1
     3     2    28    1
     4     3     8    1
     5     3     9    1
     6     3    10    1
     7     4     5    1
     8     4    12    1
     9     4    13   am
    10     5     6    1
    11     5     7    1
    12     6     8    1
    13     7     9    1
    14    10    11    1
    15    11    15    1
    16    12    16   ar
    17    12    17   ar
    18    13    14    1
    19    14    18    1
    20    15    21   ar
    21    15    22   ar
    22    16    19   ar
    23    17    20   ar
    24    18    24    1
    25    19    23   ar
    26    20    23   ar
    27    21    25   ar
    28    22    26   ar
    29    25    27   ar
    30    26    27   ar
    31     3    29    1
    32     5    30    1
    33     6    31    1
    34     6    32    1
    35     7    33    1
    36     7    34    1
    37     8    35    1
    38     8    36    1
    39     9    37    1
    40     9    38    1
    41    10    39    1
    42    10    40    1
    43    11    41    1
    44    11    42    1
    45    14    43    1
    46    14    44    1
    47    16    45    1
    48    17    46    1
    49    18    47    1
    50    18    48    1
    51    19    49    1
    52    20    50    1
    53    21    51    1
    54    22    52    1
    55    24    53    1
    56    24    54    1
    57    24    55    1
    58    25    56    1
    59    26    57    1
    60    27    58    1
    61    28    59    1
    62    28    60    1
    63    28    61    1
@<TRIPOS>MOLECULE
86280430
 57 59 0 0 0
SMALL
GASTEIGER

@<TRIPOS>ATOM
      1 F         113.1164  150.0298  146.8507 F       1  UNL111     -0.2904
      2 O         118.1800  155.5111  145.4889 O.2     1  UNL111     -0.3822
      3 N         121.6957  153.0608  145.9327 N.4     1  UNL111      0.4267
      4 N         117.4375  153.4326  146.1325 N.am    1  UNL111     -0.2901
      5 C         118.7956  152.8510  146.1425 C.3     1  UNL111      0.0176
      6 C         119.5007  152.9496  144.7796 C.3     1  UNL111     -0.0330
      7 C         119.6496  153.4613  147.2620 C.3     1  UNL111     -0.0330
      8 C         120.9070  152.3754  144.8366 C.3     1  UNL111     -0.0370
      9 C         121.0445  152.8696  147.2817 C.3     1  UNL111     -0.0370
     10 C         123.1532  152.6136  145.9280 C.3     1  UNL111     -0.0358
     11 C         124.0555  153.6607  146.5879 C.3     1  UNL111     -0.0312
     12 C         116.3380  152.5494  146.3131 C.3     1  UNL111     -0.0005
     13 C         117.2731  154.8111  145.9387 C.2     1  UNL111      0.1505
     14 C         115.9644  155.4272  146.4320 C.3     1  UNL111      0.0353
     15 C         125.4846  153.1869  146.6125 C.3     1  UNL111     -0.0753
     16 C         116.2908  151.6909  147.4196 C.3     1  UNL111     -0.0401
     17 C         115.2920  152.5316  145.3793 C.3     1  UNL111     -0.0401
     18 C         116.1382  156.8751  146.8967 C.3     1  UNL111     -0.0413
     19 C         125.9693  152.4533  147.7049 C.3     1  UNL111     -0.0811
     20 C         126.3372  153.4417  145.5297 C.3     1  UNL111     -0.0811
     21 C         115.1934  150.8477  147.6053 C.3     1  UNL111     -0.0167
     22 C         114.2076  151.6698  145.5560 C.3     1  UNL111     -0.0167
     23 C         117.0897  157.0091  148.0805 C.3     1  UNL111     -0.0653
     24 C         114.1642  150.8427  146.6714 C.3     1  UNL111      0.0844
     25 C         127.2838  151.9856  147.7128 C.3     1  UNL111     -0.0857
     26 C         127.6509  152.9715  145.5417 C.3     1  UNL111     -0.0857
     27 C         128.1231  152.2432  146.6314 C.3     1  UNL111     -0.0868
     28 H         121.6867  154.0699  145.7133 H       1  UNL111      0.1323
     29 H         118.7039  151.7768  146.3552 H       1  UNL111      0.0863
     30 H         119.5717  153.9850  144.4326 H       1  UNL111      0.0550
     31 H         118.9166  152.4152  144.0206 H       1  UNL111      0.0550
     32 H         119.1667  153.2907  148.2316 H       1  UNL111      0.0550
     33 H         119.7324  154.5483  147.1500 H       1  UNL111      0.0550
     34 H         120.9061  151.3009  145.0495 H       1  UNL111      0.0741
     35 H         121.4288  152.5602  143.8915 H       1  UNL111      0.0741
     36 H         121.6551  153.3791  148.0315 H       1  UNL111      0.0741
     37 H         121.0290  151.7952  147.4964 H       1  UNL111      0.0741
     38 H         123.4471  152.4764  144.8810 H       1  UNL111      0.0751
     39 H         123.1988  151.6404  146.4308 H       1  UNL111      0.0751
     40 H         123.7357  153.8786  147.6128 H       1  UNL111      0.0589
     41 H         123.9913  154.6117  146.0441 H       1  UNL111      0.0589
     42 H         115.5613  154.8468  147.2690 H       1  UNL111      0.0745
     43 H         115.2411  155.3994  145.6108 H       1  UNL111      0.0745
     44 H         117.0690  151.7066  148.1767 H       1  UNL111      0.1023
     45 H         115.3212  153.1619  144.4932 H       1  UNL111      0.1023
     46 H         115.1574  157.2657  147.1930 H       1  UNL111      0.0369
     47 H         116.4963  157.4994  146.0706 H       1  UNL111      0.0369
     48 H         125.3386  152.2450  148.5664 H       1  UNL111      0.0893
     49 H         125.9974  154.0153  144.6699 H       1  UNL111      0.0893
     50 H         115.1247  150.2041  148.4775 H       1  UNL111      0.1104
     51 H         113.3967  151.6384  144.8339 H       1  UNL111      0.1104
     52 H         116.7707  156.3810  148.9181 H       1  UNL111      0.0262
     53 H         117.1182  158.0477  148.4247 H       1  UNL111      0.0262
     54 H         118.1116  156.7246  147.8116 H       1  UNL111      0.0262
     55 H         127.6599  151.4244  148.5656 H       1  UNL111      0.0876
     56 H         128.3129  153.1778  144.7033 H       1  UNL111      0.0876
     57 H         129.1495  151.8830  146.6414 H       1  UNL111      0.0874
@<TRIPOS>UNITY_ATOM_ATTR
3 1
charge 1
@<TRIPOS>BOND
     1     1    24    1
     2     2    13    2
     3     3     8    1
     4     3     9    1
     5     3    10    1
     6     4     5    1
     7     4    12    1
     8     4    13   am
     9     5     6    1
    10     5     7    1
    11     6     8    1
    12     7     9    1
    13    10    11    1
    14    11    15    1
    15    12    16   ar
    16    12    17   ar
    17    13    14    1
    18    14    18    1
    19    15    19   ar
    20    15    20   ar
    21    16    21   ar
    22    17    22   ar
    23    18    23    1
    24    19    25   ar
    25    20    26   ar
    26    21    24   ar
    27    22    24   ar
    28    25    27   ar
    29    26    27   ar
    30     3    28    1
    31     5    29    1
    32     6    30    1
    33     6    31    1
    34     7    32    1
    35     7    33    1
    36     8    34    1
    37     8    35    1
    38     9    36    1
    39     9    37    1
    40    10    38    1
    41    10    39    1
    42    11    40    1
    43    11    41    1
    44    14    42    1
    45    14    43    1
    46    16    44    1
    47    17    45    1
    48    18    46    1
    49    18    47    1
    50    19    48    1
    51    20    49    1
    52    21    50    1
    53    22    51    1
    54    23    52    1
    55    23    53    1
    56    23    54    1
    57    25    55    1
    58    26    56    1
    59    27    57    1
@<TRIPOS>MOLECULE
88890
 46 48 0 0 0
SMALL
GASTEIGER

@<TRIPOS>ATOM
      1 N         119.1852  151.8734  146.4765 N.4     1  UNL111      0.4267
      2 N         122.6823  152.4059  145.6789 N.pl3   1  UNL111     -0.4102
      3 C         122.0905  151.3625  146.5089 C.3     1  UNL111     -0.0001
      4 C         121.3383  151.9606  147.7018 C.3     1  UNL111     -0.0361
      5 C         121.1209  150.5259  145.6674 C.3     1  UNL111     -0.0361
      6 C         120.1237  152.7624  147.2669 C.3     1  UNL111     -0.0375
      7 C         119.8803  151.3065  145.2577 C.3     1  UNL111     -0.0375
      8 C         117.8993  152.5870  146.0722 C.3     1  UNL111     -0.0358
      9 C         116.9829  152.8231  147.2761 C.3     1  UNL111     -0.0312
     10 C         123.7789  153.1798  146.0475 C.ar    1  UNL111     -0.0247
     11 C         115.6489  153.3628  146.8302 C.ar    1  UNL111     -0.0753
     12 C         124.1473  154.2450  145.2110 C.ar    1  UNL111     -0.0592
     13 C         124.4962  153.0154  147.2370 C.ar    1  UNL111     -0.0592
     14 C         115.4790  154.7357  146.6020 C.ar    1  UNL111     -0.0811
     15 C         114.5702  152.4959  146.6057 C.ar    1  UNL111     -0.0811
     16 C         125.2074  155.0968  145.5355 C.ar    1  UNL111     -0.0792
     17 C         125.5594  153.8641  147.5672 C.ar    1  UNL111     -0.0792
     18 C         114.2518  155.2305  146.1590 C.ar    1  UNL111     -0.0857
     19 C         113.3445  152.9952  146.1631 C.ar    1  UNL111     -0.0857
     20 C         125.9156  154.9045  146.7158 C.ar    1  UNL111     -0.0845
     21 C         113.1861  154.3609  145.9388 C.ar    1  UNL111     -0.0868
     22 H         118.9127  151.0810  147.0736 H       1  UNL111      0.1323
     23 H         122.6077  152.3159  144.6668 H       1  UNL111      0.1809
     24 H         122.8803  150.6912  146.8674 H       1  UNL111      0.0813
     25 H         121.9845  152.6061  148.3045 H       1  UNL111      0.0544
     26 H         121.0155  151.1469  148.3646 H       1  UNL111      0.0544
     27 H         120.8139  149.6447  146.2457 H       1  UNL111      0.0544
     28 H         121.6243  150.1509  144.7680 H       1  UNL111      0.0544
     29 H         119.5826  153.1137  148.1494 H       1  UNL111      0.0740
     30 H         120.3851  153.6203  146.6380 H       1  UNL111      0.0740
     31 H         120.1178  152.1433  144.5913 H       1  UNL111      0.0740
     32 H         119.1684  150.6412  144.7575 H       1  UNL111      0.0740
     33 H         117.3984  151.9387  145.3434 H       1  UNL111      0.0751
     34 H         118.1816  153.5210  145.5726 H       1  UNL111      0.0751
     35 H         117.4313  153.5309  147.9824 H       1  UNL111      0.0589
     36 H         116.8350  151.8889  147.8322 H       1  UNL111      0.0589
     37 H         123.6075  154.4286  144.2851 H       1  UNL111      0.0987
     38 H         124.2720  152.2085  147.9269 H       1  UNL111      0.0987
     39 H         116.2913  155.4387  146.7745 H       1  UNL111      0.0893
     40 H         114.6630  151.4261  146.7800 H       1  UNL111      0.0893
     41 H         125.4788  155.9091  144.8657 H       1  UNL111      0.0890
     42 H         126.1142  153.7068  148.4894 H       1  UNL111      0.0890
     43 H         114.1208  156.2974  145.9906 H       1  UNL111      0.0876
     44 H         112.5068  152.3210  145.9979 H       1  UNL111      0.0876
     45 H         126.7440  155.5611  146.9704 H       1  UNL111      0.0876
     46 H         112.2283  154.7490  145.5991 H       1  UNL111      0.0874
@<TRIPOS>UNITY_ATOM_ATTR
1 1
charge 1
@<TRIPOS>BOND
     1     1     6    1
     2     1     7    1
     3     1     8    1
     4     2     3    1
     5     2    10    1
     6     3     4    1
     7     3     5    1
     8     4     6    1
     9     5     7    1
    10     8     9    1
    11     9    11    1
    12    10    12   ar
    13    10    13   ar
    14    11    14   ar
    15    11    15   ar
    16    12    16   ar
    17    13    17   ar
    18    14    18   ar
    19    15    19   ar
    20    16    20   ar
    21    17    20   ar
    22    18    21   ar
    23    19    21   ar
    24     1    22    1
    25     2    23    1
    26     3    24    1
    27     4    25    1
    28     4    26    1
    29     5    27    1
    30     5    28    1
    31     6    29    1
    32     6    30    1
    33     7    31    1
    34     7    32    1
    35     8    33    1
    36     8    34    1
    37     9    35    1
    38     9    36    1
    39    12    37    1
    40    13    38    1
    41    14    39    1
    42    15    40    1
    43    16    41    1
    44    17    42    1
    45    18    43    1
    46    19    44    1
    47    20    45    1
    48    21    46    1
@<TRIPOS>MOLECULE
13653606
 55 58 0 0 0
SMALL
GASTEIGER

@<TRIPOS>ATOM
      1 O         117.2845  150.5623  145.9429 O.2     1  UNL111     -0.3466
      2 O         114.5650  150.9745  145.5206 O.2     1  UNL111     -0.5186
      3 N         121.9104  152.8641  146.2674 N.4     1  UNL111      0.4267
      4 N         117.5991  152.7192  146.6549 N.am    1  UNL111     -0.2696
      5 C         119.0502  152.4310  146.6924 C.3     1  UNL111      0.0217
      6 C         119.6660  152.4919  145.2839 C.3     1  UNL111     -0.0325
      7 C         119.8943  153.2680  147.6607 C.3     1  UNL111     -0.0325
      8 C         121.1077  152.0169  145.3000 C.3     1  UNL111     -0.0370
      9 C         121.3418  152.7937  147.6676 C.3     1  UNL111     -0.0370
     10 C         123.3890  152.4887  146.2097 C.3     1  UNL111     -0.0358
     11 C         124.2695  153.6077  146.7734 C.3     1  UNL111     -0.0312
     12 C         117.1784  154.0707  146.4948 C.3     1  UNL111     -0.0008
     13 C         116.7606  151.6300  146.2793 C.2     1  UNL111      0.2416
     14 C         125.7283  153.2813  146.5894 C.3     1  UNL111     -0.0753
     15 C         117.2760  154.9739  147.5584 C.3     1  UNL111     -0.0550
     16 C         116.6484  154.5050  145.2725 C.3     1  UNL111     -0.0550
     17 C         115.3146  151.7893  146.3318 C.3     1  UNL111      0.1550
     18 C         126.4315  152.5855  147.5826 C.3     1  UNL111     -0.0811
     19 C         126.3926  153.6396  145.4077 C.3     1  UNL111     -0.0811
     20 C         116.8658  156.2989  147.3972 C.3     1  UNL111     -0.0786
     21 C         116.2415  155.8307  145.1135 C.3     1  UNL111     -0.0786
     22 C         114.4577  152.5882  147.0710 C.3     1  UNL111      0.0123
     23 C         116.3535  156.7272  146.1742 C.3     1  UNL111     -0.0844
     24 C         127.7752  152.2577  147.3966 C.3     1  UNL111     -0.0857
     25 C         127.7359  153.3086  145.2255 C.3     1  UNL111     -0.0857
     26 C         113.1377  152.2608  146.6740 C.3     1  UNL111     -0.0179
     27 C         128.4260  152.6177  146.2188 C.3     1  UNL111     -0.0868
     28 C         113.2588  151.2720  145.7295 C.3     1  UNL111      0.0348
     29 H         121.8395  153.8380  145.9388 H       1  UNL111      0.1323
     30 H         119.1443  151.3934  147.0439 H       1  UNL111      0.0870
     31 H         119.6194  153.5173  144.8952 H       1  UNL111      0.0551
     32 H         119.0974  151.8711  144.5823 H       1  UNL111      0.0551
     33 H         119.4891  153.1905  148.6760 H       1  UNL111      0.0551
     34 H         119.8799  154.3274  147.3799 H       1  UNL111      0.0551
     35 H         121.1966  150.9723  145.6188 H       1  UNL111      0.0741
     36 H         121.5562  152.1369  144.3083 H       1  UNL111      0.0741
     37 H         121.9425  153.4449  148.3079 H       1  UNL111      0.0741
     38 H         121.4325  151.7579  148.0132 H       1  UNL111      0.0741
     39 H         123.6313  152.3200  145.1538 H       1  UNL111      0.0751
     40 H         123.5125  151.5436  146.7510 H       1  UNL111      0.0751
     41 H         124.0706  153.7684  147.8389 H       1  UNL111      0.0589
     42 H         124.0435  154.5592  146.2756 H       1  UNL111      0.0589
     43 H         117.6238  154.6528  148.5358 H       1  UNL111      0.0994
     44 H         116.5490  153.8244  144.4295 H       1  UNL111      0.0994
     45 H         125.9510  152.2982  148.5153 H       1  UNL111      0.0893
     46 H         125.8809  154.1867  144.6188 H       1  UNL111      0.0893
     47 H         116.9260  156.9953  148.2308 H       1  UNL111      0.0890
     48 H         115.8263  156.1628  144.1642 H       1  UNL111      0.0890
     49 H         114.7408  153.3169  147.8170 H       1  UNL111      0.1194
     50 H         116.0240  157.7571  146.0520 H       1  UNL111      0.0876
     51 H         128.3208  151.7254  148.1729 H       1  UNL111      0.0876
     52 H         128.2505  153.5941  144.3105 H       1  UNL111      0.0876
     53 H         112.2120  152.6847  147.0385 H       1  UNL111      0.1107
     54 H         129.4748  152.3655  146.0777 H       1  UNL111      0.0874
     55 H         112.5492  150.7006  145.1462 H       1  UNL111      0.1750
@<TRIPOS>UNITY_ATOM_ATTR
3 1
charge 1
@<TRIPOS>BOND
     1     1    13    2
     2     2    17   ar
     3     2    28   ar
     4     3     8    1
     5     3     9    1
     6     3    10    1
     7     4     5    1
     8     4    12    1
     9     4    13   am
    10     5     6    1
    11     5     7    1
    12     6     8    1
    13     7     9    1
    14    10    11    1
    15    11    14    1
    16    12    15   ar
    17    12    16   ar
    18    13    17    1
    19    14    18   ar
    20    14    19   ar
    21    15    20   ar
    22    16    21   ar
    23    17    22   ar
    24    18    24   ar
    25    19    25   ar
    26    20    23   ar
    27    21    23   ar
    28    22    26   ar
    29    24    27   ar
    30    25    27   ar
    31    26    28   ar
    32     3    29    1
    33     5    30    1
    34     6    31    1
    35     6    32    1
    36     7    33    1
    37     7    34    1
    38     8    35    1
    39     8    36    1
    40     9    37    1
    41     9    38    1
    42    10    39    1
    43    10    40    1
    44    11    41    1
    45    11    42    1
    46    15    43    1
    47    16    44    1
    48    18    45    1
    49    19    46    1
    50    20    47    1
    51    21    48    1
    52    22    49    1
    53    23    50    1
    54    24    51    1
    55    25    52    1
    56    26    53    1
    57    27    54    1
    58    28    55    1
@<TRIPOS>MOLECULE
621174
 57 59 0 0 0
SMALL
GASTEIGER

@<TRIPOS>ATOM
      1 O         116.8252  150.6446  146.7731 O.2     1  UNL111     -0.3822
      2 N         121.4734  153.0387  146.0734 N.4     1  UNL111      0.4267
      3 N         117.1605  152.8230  146.1351 N.am    1  UNL111     -0.2906
      4 C         118.5963  152.5453  145.9471 C.3     1  UNL111      0.0176
      5 C         119.3122  153.4116  144.9043 C.3     1  UNL111     -0.0330
      6 C         119.3527  152.6024  147.2823 C.3     1  UNL111     -0.0330
      7 C         120.7584  152.9709  144.7393 C.3     1  UNL111     -0.0370
      8 C         120.7972  152.1664  147.1099 C.3     1  UNL111     -0.0370
      9 C         122.9547  152.7115  145.9039 C.3     1  UNL111     -0.0358
     10 C         123.7773  153.1929  147.1025 C.3     1  UNL111     -0.0312
     11 C         116.7203  154.1680  146.1901 C.3     1  UNL111     -0.0053
     12 C         116.3461  151.7607  146.5573 C.2     1  UNL111      0.1504
     13 C         114.8557  152.0428  146.7197 C.3     1  UNL111      0.0353
     14 C         125.2486  152.9907  146.8506 C.3     1  UNL111     -0.0753
     15 C         116.5356  154.7965  147.4259 C.3     1  UNL111     -0.0556
     16 C         116.4604  154.8650  145.0070 C.3     1  UNL111     -0.0556
     17 C         114.0437  150.7593  146.8873 C.3     1  UNL111     -0.0413
     18 C         125.8625  151.7716  147.1709 C.3     1  UNL111     -0.0811
     19 C         126.0149  154.0057  146.2605 C.3     1  UNL111     -0.0811
     20 C         116.1079  156.1235  147.4752 C.3     1  UNL111     -0.0787
     21 C         116.0318  156.1918  145.0605 C.3     1  UNL111     -0.0787
     22 C         112.5577  151.0529  147.0148 C.3     1  UNL111     -0.0653
     23 C         115.8594  156.8207  146.2933 C.3     1  UNL111     -0.0844
     24 C         127.2185  151.5743  146.9073 C.3     1  UNL111     -0.0857
     25 C         127.3705  153.8037  145.9983 C.3     1  UNL111     -0.0857
     26 C         127.9712  152.5889  146.3204 C.3     1  UNL111     -0.0868
     27 H         121.4200  154.0161  146.3950 H       1  UNL111      0.1323
     28 H         118.6628  151.5109  145.5806 H       1  UNL111      0.0863
     29 H         119.2947  154.4691  145.1951 H       1  UNL111      0.0550
     30 H         118.8041  153.3326  143.9363 H       1  UNL111      0.0550
     31 H         118.8720  151.9553  148.0253 H       1  UNL111      0.0550
     32 H         119.3225  153.6198  147.6922 H       1  UNL111      0.0550
     33 H         120.8364  151.9413  144.3725 H       1  UNL111      0.0741
     34 H         121.2816  153.6439  144.0519 H       1  UNL111      0.0741
     35 H         121.3357  152.2861  148.0534 H       1  UNL111      0.0741
     36 H         120.8755  151.1267  146.7733 H       1  UNL111      0.0741
     37 H         123.2875  153.2240  144.9937 H       1  UNL111      0.0751
     38 H         123.0382  151.6300  145.7455 H       1  UNL111      0.0751
     39 H         123.4971  152.6576  148.0165 H       1  UNL111      0.0589
     40 H         123.5810  154.2545  147.2988 H       1  UNL111      0.0589
     41 H         114.4973  152.5850  145.8376 H       1  UNL111      0.0745
     42 H         114.7131  152.6747  147.6025 H       1  UNL111      0.0745
     43 H         116.7155  154.2627  148.3555 H       1  UNL111      0.0993
     44 H         116.5598  154.3783  144.0406 H       1  UNL111      0.0993
     45 H         114.3814  150.2154  147.7775 H       1  UNL111      0.0369
     46 H         114.2099  150.0977  146.0288 H       1  UNL111      0.0369
     47 H         125.3010  150.9649  147.6374 H       1  UNL111      0.0893
     48 H         125.5740  154.9671  146.0058 H       1  UNL111      0.0893
     49 H         115.9555  156.6133  148.4346 H       1  UNL111      0.0890
     50 H         115.8152  156.7334  144.1422 H       1  UNL111      0.0890
     51 H         112.3562  151.6856  147.8851 H       1  UNL111      0.0262
     52 H         111.9961  150.1212  147.1348 H       1  UNL111      0.0262
     53 H         112.1808  151.5642  146.1233 H       1  UNL111      0.0262
     54 H         115.5142  157.8520  146.3334 H       1  UNL111      0.0876
     55 H         127.6940  150.6302  147.1649 H       1  UNL111      0.0876
     56 H         127.9645  154.5960  145.5476 H       1  UNL111      0.0876
     57 H         129.0294  152.4352  146.1206 H       1  UNL111      0.0874
@<TRIPOS>UNITY_ATOM_ATTR
2 1
charge 1
@<TRIPOS>BOND
     1     1    12    2
     2     2     7    1
     3     2     8    1
     4     2     9    1
     5     3     4    1
     6     3    11    1
     7     3    12   am
     8     4     5    1
     9     4     6    1
    10     5     7    1
    11     6     8    1
    12     9    10    1
    13    10    14    1
    14    11    15   ar
    15    11    16   ar
    16    12    13    1
    17    13    17    1
    18    14    18   ar
    19    14    19   ar
    20    15    20   ar
    21    16    21   ar
    22    17    22    1
    23    18    24   ar
    24    19    25   ar
    25    20    23   ar
    26    21    23   ar
    27    24    26   ar
    28    25    26   ar
    29     2    27    1
    30     4    28    1
    31     5    29    1
    32     5    30    1
    33     6    31    1
    34     6    32    1
    35     7    33    1
    36     7    34    1
    37     8    35    1
    38     8    36    1
    39     9    37    1
    40     9    38    1
    41    10    39    1
    42    10    40    1
    43    13    41    1
    44    13    42    1
    45    15    43    1
    46    16    44    1
    47    17    45    1
    48    17    46    1
    49    18    47    1
    50    19    48    1
    51    20    49    1
    52    21    50    1
    53    22    51    1
    54    22    52    1
    55    22    53    1
    56    23    54    1
    57    24    55    1
    58    25    56    1
    59    26    57    1
@<TRIPOS>MOLECULE
91825762
 55 58 0 0 0
SMALL
GASTEIGER

@<TRIPOS>ATOM
      1 F         113.9429  149.3133  146.7470 F       1  UNL111     -0.2904
      2 O         118.6188  155.2968  147.0371 O.2     1  UNL111     -0.3466
      3 O         115.4330  154.6222  145.6617 O.2     1  UNL111     -0.5186
      4 N         122.1443  153.1734  146.0888 N.4     1  UNL111      0.4267
      5 N         117.8756  153.2367  146.3408 N.am    1  UNL111     -0.2691
      6 C         119.2597  152.7616  146.1058 C.3     1  UNL111      0.0217
      7 C         119.9591  153.5412  144.9817 C.3     1  UNL111     -0.0325
      8 C         120.0902  152.7409  147.4001 C.3     1  UNL111     -0.0325
      9 C         121.3903  153.0755  144.7809 C.3     1  UNL111     -0.0370
     10 C         121.5180  152.2924  147.1452 C.3     1  UNL111     -0.0370
     11 C         123.6284  152.8886  145.8867 C.3     1  UNL111     -0.0358
     12 C         124.4701  153.4745  147.0240 C.3     1  UNL111     -0.0312
     13 C         116.8491  152.2414  146.4326 C.3     1  UNL111      0.0040
     14 C         117.6639  154.5979  146.6817 C.2     1  UNL111      0.2416
     15 C         125.9356  153.2278  146.7773 C.3     1  UNL111     -0.0753
     16 C         116.7622  151.2137  145.4801 C.3     1  UNL111     -0.0395
     17 C         115.9347  152.2514  147.4990 C.3     1  UNL111     -0.0395
     18 C         116.3391  155.1791  146.5253 C.3     1  UNL111      0.1550
     19 C         126.5528  152.0692  147.2699 C.3     1  UNL111     -0.0811
     20 C         126.6922  154.1347  146.0219 C.3     1  UNL111     -0.0811
     21 C         115.7776  150.2274  145.5855 C.3     1  UNL111     -0.0166
     22 C         114.9526  151.2627  147.6041 C.3     1  UNL111     -0.0166
     23 C         115.7971  156.3318  147.0666 C.3     1  UNL111      0.0123
     24 C         114.8829  150.2607  146.6465 C.3     1  UNL111      0.0844
     25 C         127.9023  151.8251  147.0125 C.3     1  UNL111     -0.0857
     26 C         128.0413  153.8859  145.7659 C.3     1  UNL111     -0.0857
     27 C         114.4875  156.4556  146.5437 C.3     1  UNL111     -0.0179
     28 C         128.6452  152.7318  146.2598 C.3     1  UNL111     -0.0868
     29 C         114.3144  155.3899  145.6942 C.3     1  UNL111      0.0348
     30 H         122.0663  154.1532  146.4054 H       1  UNL111      0.1323
     31 H         119.2201  151.7188  145.7677 H       1  UNL111      0.0870
     32 H         119.9736  154.6169  145.1857 H       1  UNL111      0.0551
     33 H         119.3999  153.4174  144.0462 H       1  UNL111      0.0551
     34 H         119.6214  152.0658  148.1266 H       1  UNL111      0.0551
     35 H         120.1204  153.7242  147.8791 H       1  UNL111      0.0551
     36 H         121.4433  152.0347  144.4426 H       1  UNL111      0.0741
     37 H         121.8975  153.7206  144.0557 H       1  UNL111      0.0741
     38 H         122.1075  152.3860  148.0609 H       1  UNL111      0.0741
     39 H         121.5657  151.2576  146.7883 H       1  UNL111      0.0741
     40 H         123.9160  153.3530  144.9362 H       1  UNL111      0.0751
     41 H         123.7454  151.8028  145.7918 H       1  UNL111      0.0751
     42 H         124.1929  153.0394  147.9904 H       1  UNL111      0.0589
     43 H         124.2901  154.5532  147.1144 H       1  UNL111      0.0589
     44 H         117.4173  151.1903  144.6142 H       1  UNL111      0.1024
     45 H         115.9786  153.0113  148.2752 H       1  UNL111      0.1024
     46 H         125.9991  151.3483  147.8675 H       1  UNL111      0.0893
     47 H         126.2487  155.0482  145.6315 H       1  UNL111      0.0893
     48 H         115.6922  149.4420  144.8405 H       1  UNL111      0.1105
     49 H         114.2430  151.2694  148.4262 H       1  UNL111      0.1105
     50 H         116.2951  156.9984  147.7580 H       1  UNL111      0.1194
     51 H         128.3807  150.9299  147.4040 H       1  UNL111      0.0876
     52 H         128.6277  154.5954  145.1859 H       1  UNL111      0.0876
     53 H         113.7624  157.2311  146.7506 H       1  UNL111      0.1107
     54 H         129.6986  152.5428  146.0647 H       1  UNL111      0.0874
     55 H         113.4990  155.0578  145.0656 H       1  UNL111      0.1750
@<TRIPOS>UNITY_ATOM_ATTR
4 1
charge 1
@<TRIPOS>BOND
     1     1    24    1
     2     2    14    2
     3     3    18   ar
     4     3    29   ar
     5     4     9    1
     6     4    10    1
     7     4    11    1
     8     5     6    1
     9     5    13    1
    10     5    14   am
    11     6     7    1
    12     6     8    1
    13     7     9    1
    14     8    10    1
    15    11    12    1
    16    12    15    1
    17    13    16   ar
    18    13    17   ar
    19    14    18    1
    20    15    19   ar
    21    15    20   ar
    22    16    21   ar
    23    17    22   ar
    24    18    23   ar
    25    19    25   ar
    26    20    26   ar
    27    21    24   ar
    28    22    24   ar
    29    23    27   ar
    30    25    28   ar
    31    26    28   ar
    32    27    29   ar
    33     4    30    1
    34     6    31    1
    35     7    32    1
    36     7    33    1
    37     8    34    1
    38     8    35    1
    39     9    36    1
    40     9    37    1
    41    10    38    1
    42    10    39    1
    43    11    40    1
    44    11    41    1
    45    12    42    1
    46    12    43    1
    47    16    44    1
    48    17    45    1
    49    19    46    1
    50    20    47    1
    51    21    48    1
    52    22    49    1
    53    23    50    1
    54    25    51    1
    55    26    52    1
    56    27    53    1
    57    28    54    1
    58    29    55    1
@<TRIPOS>MOLECULE
44371939
 55 57 0 0 0
SMALL
GASTEIGER

@<TRIPOS>ATOM
      1 O         115.7233  154.8968  146.6568 O.3     1  UNL111     -0.5024
      2 O         117.9089  155.3991  146.2747 O.2     1  UNL111     -0.2887
      3 N         121.5313  153.1390  146.1046 N.4     1  UNL111      0.4268
      4 N         117.2572  153.1791  146.3597 N.am    1  UNL111     -0.2406
      5 C         118.6540  152.7015  146.2781 C.3     1  UNL111      0.0309
      6 C         119.4840  153.1105  147.5028 C.3     1  UNL111     -0.0307
      7 C         119.3321  153.1223  144.9633 C.3     1  UNL111     -0.0307
      8 C         120.9207  152.6306  147.3906 C.3     1  UNL111     -0.0368
      9 C         120.7680  152.6348  144.8980 C.3     1  UNL111     -0.0368
     10 C         123.0144  152.8068  145.9831 C.3     1  UNL111     -0.0358
     11 C         123.8674  153.7000  146.8882 C.3     1  UNL111     -0.0312
     12 C         116.2058  152.2024  146.3401 C.3     1  UNL111      0.0098
     13 C         117.0154  154.5634  146.3966 C.2     1  UNL111      0.3104
     14 C         125.3296  153.3816  146.7137 C.3     1  UNL111     -0.0753
     15 C         115.0333  152.4144  145.6007 C.3     1  UNL111     -0.0529
     16 C         116.3378  150.9891  147.0335 C.3     1  UNL111     -0.0529
     17 C         125.9402  152.3975  147.5042 C.3     1  UNL111     -0.0811
     18 C         126.0886  154.0369  145.7341 C.3     1  UNL111     -0.0811
     19 C         114.0239  151.4478  145.5580 C.3     1  UNL111     -0.0784
     20 C         115.3271  150.0232  146.9937 C.3     1  UNL111     -0.0784
     21 C         114.1712  150.2525  146.2543 C.3     1  UNL111     -0.0844
     22 C         115.4572  156.3019  146.7497 C.3     1  UNL111      0.0541
     23 C         127.2855  152.0774  147.3178 C.3     1  UNL111     -0.0857
     24 C         127.4336  153.7130  145.5508 C.3     1  UNL111     -0.0857
     25 C         128.0308  152.7334  146.3409 C.3     1  UNL111     -0.0868
     26 C         113.9720  156.4836  146.9944 C.3     1  UNL111     -0.0306
     27 H         121.4507  154.1683  146.0986 H       1  UNL111      0.1323
     28 H         118.6493  151.6048  146.2523 H       1  UNL111      0.0894
     29 H         119.0311  152.6948  148.4111 H       1  UNL111      0.0553
     30 H         119.4915  154.1973  147.6371 H       1  UNL111      0.0553
     31 H         119.3323  154.2092  144.8355 H       1  UNL111      0.0553
     32 H         118.7702  152.7164  144.1131 H       1  UNL111      0.0553
     33 H         121.5092  153.0214  148.2246 H       1  UNL111      0.0741
     34 H         120.9869  151.5370  147.3814 H       1  UNL111      0.0741
     35 H         120.8343  151.5411  144.8952 H       1  UNL111      0.0741
     36 H         121.2606  153.0322  144.0044 H       1  UNL111      0.0741
     37 H         123.2927  152.9694  144.9351 H       1  UNL111      0.0751
     38 H         123.1321  151.7412  146.2118 H       1  UNL111      0.0751
     39 H         123.5998  153.5724  147.9428 H       1  UNL111      0.0589
     40 H         123.6904  154.7577  146.6556 H       1  UNL111      0.0589
     41 H         114.8898  153.3203  145.0171 H       1  UNL111      0.0996
     42 H         117.2001  150.7866  147.6609 H       1  UNL111      0.0996
     43 H         125.3845  151.8750  148.2797 H       1  UNL111      0.0893
     44 H         125.6503  154.8115  145.1084 H       1  UNL111      0.0893
     45 H         113.1221  151.6304  144.9777 H       1  UNL111      0.0891
     46 H         115.4349  149.0959  147.5517 H       1  UNL111      0.0891
     47 H         113.3823  149.5044  146.2255 H       1  UNL111      0.0876
     48 H         115.7417  156.7958  145.8140 H       1  UNL111      0.1165
     49 H         116.0264  156.7292  147.5825 H       1  UNL111      0.1165
     50 H         127.7586  151.3194  147.9385 H       1  UNL111      0.0876
     51 H         128.0221  154.2286  144.7949 H       1  UNL111      0.0876
     52 H         129.0809  152.4864  146.2003 H       1  UNL111      0.0874
     53 H         113.3904  156.0395  146.1796 H       1  UNL111      0.0428
     54 H         113.7162  157.5438  147.0745 H       1  UNL111      0.0428
     55 H         113.6680  155.9753  147.9156 H       1  UNL111      0.0428
@<TRIPOS>UNITY_ATOM_ATTR
3 1
charge 1
@<TRIPOS>BOND
     1     1    13    1
     2     1    22    1
     3     2    13    2
     4     3     8    1
     5     3     9    1
     6     3    10    1
     7     4     5    1
     8     4    12    1
     9     4    13   am
    10     5     6    1
    11     5     7    1
    12     6     8    1
    13     7     9    1
    14    10    11    1
    15    11    14    1
    16    12    15   ar
    17    12    16   ar
    18    14    17   ar
    19    14    18   ar
    20    15    19   ar
    21    16    20   ar
    22    17    23   ar
    23    18    24   ar
    24    19    21   ar
    25    20    21   ar
    26    22    26    1
    27    23    25   ar
    28    24    25   ar
    29     3    27    1
    30     5    28    1
    31     6    29    1
    32     6    30    1
    33     7    31    1
    34     7    32    1
    35     8    33    1
    36     8    34    1
    37     9    35    1
    38     9    36    1
    39    10    37    1
    40    10    38    1
    41    11    39    1
    42    11    40    1
    43    15    41    1
    44    16    42    1
    45    17    43    1
    46    18    44    1
    47    19    45    1
    48    20    46    1
    49    21    47    1
    50    22    48    1
    51    22    49    1
    52    23    50    1
    53    24    51    1
    54    25    52    1
    55    26    53    1
    56    26    54    1
    57    26    55    1
@<TRIPOS>MOLECULE
56672265
 59 61 0 0 0
SMALL
GASTEIGER

@<TRIPOS>ATOM
      1 O         117.2796  153.1941  149.0161 O.2     1  UNL111     -0.3821
      2 O         120.5113  155.0887  146.7617 O.co2   1  UNL111     -0.5710
      3 O         118.9541  155.9696  145.3817 O.co2   1  UNL111     -0.5710
      4 N         121.4679  152.8755  146.1194 N.4     1  UNL111      0.4267
      5 N         117.4086  152.0328  147.0291 N.am    1  UNL111     -0.2906
      6 C         118.8135  151.7665  146.6461 C.3     1  UNL111      0.0176
      7 C         119.1537  152.4469  145.3144 C.3     1  UNL111     -0.0330
      8 C         119.8064  152.1163  147.7678 C.3     1  UNL111     -0.0330
      9 C         120.6288  152.4419  144.9604 C.3     1  UNL111     -0.0370
     10 C         121.2514  152.0212  147.3239 C.3     1  UNL111     -0.0370
     11 C         122.9087  153.0871  145.7388 C.3     1  UNL111     -0.0358
     12 C         123.6522  153.9955  146.7237 C.3     1  UNL111     -0.0312
     13 C         116.3357  151.1720  146.6159 C.3     1  UNL111     -0.0053
     14 C         117.1307  153.1735  147.7954 C.2     1  UNL111      0.1510
     15 C         116.6115  154.3613  146.9947 C.3     1  UNL111      0.0385
     16 C         125.1163  154.0786  146.3616 C.3     1  UNL111     -0.0753
     17 C         115.0606  151.3079  147.1910 C.3     1  UNL111     -0.0556
     18 C         116.5087  150.1620  145.6579 C.3     1  UNL111     -0.0556
     19 C         117.0319  155.7285  147.5478 C.3     1  UNL111     -0.0257
     20 C         126.0097  153.0820  146.7811 C.3     1  UNL111     -0.0811
     21 C         125.5938  155.1353  145.5755 C.3     1  UNL111     -0.0811
     22 C         118.5353  155.9587  147.7239 C.3     1  UNL111     -0.0062
     23 C         114.0008  150.4733  146.8203 C.3     1  UNL111     -0.0787
     24 C         115.4480  149.3275  145.2836 C.3     1  UNL111     -0.0787
     25 C         114.1945  149.4830  145.8648 C.3     1  UNL111     -0.0844
     26 C         127.3560  153.1430  146.4194 C.3     1  UNL111     -0.0857
     27 C         126.9414  155.1944  145.2177 C.3     1  UNL111     -0.0857
     28 C         127.8212  154.1984  145.6376 C.3     1  UNL111     -0.0868
     29 C         119.4177  155.6917  146.5154 C.2     1  UNL111      0.0206
     30 H         121.1120  153.8520  146.3720 H       1  UNL111      0.1323
     31 H         118.9286  150.6840  146.5100 H       1  UNL111      0.0863
     32 H         118.8047  153.4763  145.3206 H       1  UNL111      0.0550
     33 H         118.5959  151.9728  144.4981 H       1  UNL111      0.0550
     34 H         119.6419  151.4462  148.6210 H       1  UNL111      0.0550
     35 H         119.6406  153.1269  148.1483 H       1  UNL111      0.0550
     36 H         120.9638  151.4387  144.6731 H       1  UNL111      0.0741
     37 H         120.8160  153.1297  144.1285 H       1  UNL111      0.0741
     38 H         121.9055  152.3705  148.1263 H       1  UNL111      0.0741
     39 H         121.5312  150.9951  147.0602 H       1  UNL111      0.0741
     40 H         122.9215  153.5453  144.7425 H       1  UNL111      0.0751
     41 H         123.3673  152.0941  145.6624 H       1  UNL111      0.0751
     42 H         123.5739  153.6328  147.7538 H       1  UNL111      0.0589
     43 H         123.2144  155.0007  146.7213 H       1  UNL111      0.0589
     44 H         115.5164  154.3056  147.0101 H       1  UNL111      0.0752
     45 H         116.9031  154.2713  145.9454 H       1  UNL111      0.0752
     46 H         114.8664  152.0476  147.9647 H       1  UNL111      0.0993
     47 H         117.4558  149.9997  145.1575 H       1  UNL111      0.0993
     48 H         116.5495  155.8813  148.5216 H       1  UNL111      0.0418
     49 H         116.6287  156.5020  146.8822 H       1  UNL111      0.0418
     50 H         125.6685  152.2552  147.3996 H       1  UNL111      0.0893
     51 H         124.9225  155.9255  145.2428 H       1  UNL111      0.0893
     52 H         118.8933  155.3572  148.5677 H       1  UNL111      0.0553
     53 H         118.6968  157.0052  148.0112 H       1  UNL111      0.0553
     54 H         113.0271  150.5973  147.2879 H       1  UNL111      0.0890
     55 H         115.6033  148.5559  144.5335 H       1  UNL111      0.0890
     56 H         113.3719  148.8340  145.5764 H       1  UNL111      0.0876
     57 H         128.0453  152.3710  146.7522 H       1  UNL111      0.0876
     58 H         127.3065  156.0222  144.6145 H       1  UNL111      0.0876
     59 H         128.8712  154.2493  145.3609 H       1  UNL111      0.0874
@<TRIPOS>UNITY_ATOM_ATTR
2 1
charge -1
4 1
charge 1
@<TRIPOS>BOND
     1     1    14    2
     2     2    29   ar
     3     3    29   ar
     4     4     9    1
     5     4    10    1
     6     4    11    1
     7     5     6    1
     8     5    13    1
     9     5    14   am
    10     6     7    1
    11     6     8    1
    12     7     9    1
    13     8    10    1
    14    11    12    1
    15    12    16    1
    16    13    17   ar
    17    13    18   ar
    18    14    15    1
    19    15    19    1
    20    16    20   ar
    21    16    21   ar
    22    17    23   ar
    23    18    24   ar
    24    19    22    1
    25    20    26   ar
    26    21    27   ar
    27    22    29    1
    28    23    25   ar
    29    24    25   ar
    30    26    28   ar
    31    27    28   ar
    32     4    30    1
    33     6    31    1
    34     7    32    1
    35     7    33    1
    36     8    34    1
    37     8    35    1
    38     9    36    1
    39     9    37    1
    40    10    38    1
    41    10    39    1
    42    11    40    1
    43    11    41    1
    44    12    42    1
    45    12    43    1
    46    15    44    1
    47    15    45    1
    48    17    46    1
    49    18    47    1
    50    19    48    1
    51    19    49    1
    52    20    50    1
    53    21    51    1
    54    22    52    1
    55    22    53    1
    56    23    54    1
    57    24    55    1
    58    25    56    1
    59    26    57    1
    60    27    58    1
    61    28    59    1
@<TRIPOS>MOLECULE
240
 14 14 0 0 0
SMALL
GASTEIGER

@<TRIPOS>ATOM
      1 O         122.7126  152.6995  146.4081 O.2     1  UNL1111    -0.4142
      2 C         120.4269  153.3214  146.4079 C.3     1  UNL1111     0.0091
      3 C         119.5272  154.3913  146.4079 C.3     1  UNL1111    -0.0588
      4 C         119.9608  152.0038  146.4079 C.3     1  UNL1111    -0.0588
      5 C         118.1545  154.1370  146.4080 C.3     1  UNL1111    -0.0815
      6 C         118.5879  151.7560  146.4080 C.3     1  UNL1111    -0.0815
      7 C         117.6868  152.8217  146.4080 C.3     1  UNL1111    -0.0857
      8 C         121.8778  153.5955  146.4077 C.2     1  UNL1111     0.1099
      9 H         119.8787  155.4195  146.4079 H       1  UNL1111     0.0948
     10 H         120.6627  151.1724  146.4079 H       1  UNL1111     0.0948
     11 H         117.4471  154.9629  146.4081 H       1  UNL1111     0.0882
     12 H         118.2215  150.7323  146.4080 H       1  UNL1111     0.0882
     13 H         116.6169  152.6258  146.4081 H       1  UNL1111     0.0875
     14 H         122.1776  154.6569  146.4073 H       1  UNL1111     0.2082
@<TRIPOS>BOND
     1     1     8    2
     2     2     3   ar
     3     2     4   ar
     4     2     8    1
     5     3     5   ar
     6     4     6   ar
     7     5     7   ar
     8     6     7   ar
     9     3     9    1
    10     4    10    1
    11     5    11    1
    12     6    12    1
    13     7    13    1
    14     8    14    1
@<TRIPOS>MOLECULE
252141
 51 53 0 0 0
SMALL
GASTEIGER

@<TRIPOS>ATOM
      1 O         117.1160  155.5701  145.4655 O.2     1  UNL111     -0.3824
      2 N         121.6865  153.7290  147.3349 N.4     1  UNL111      0.4292
      3 N         117.4530  153.5661  146.5308 N.am    1  UNL111     -0.2907
      4 C         118.8180  153.9885  146.8937 C.3     1  UNL111      0.0176
      5 C         119.7975  153.7635  145.7326 C.3     1  UNL111     -0.0327
      6 C         119.3835  153.3765  148.1811 C.3     1  UNL111     -0.0327
      7 C         121.1659  154.3395  146.0533 C.3     1  UNL111     -0.0355
      8 C         120.7533  153.9574  148.4961 C.3     1  UNL111     -0.0355
      9 C         123.0957  154.1907  147.6631 C.3     1  UNL111     -0.0146
     10 C         117.0977  152.2015  146.6591 C.3     1  UNL111     -0.0054
     11 C         116.6695  154.4682  145.7950 C.2     1  UNL111      0.1497
     12 C         124.1283  153.6339  146.7220 C.3     1  UNL111     -0.0704
     13 C         115.2517  154.0355  145.4391 C.3     1  UNL111      0.0336
     14 C         117.1835  151.3465  145.5558 C.3     1  UNL111     -0.0556
     15 C         116.6522  151.7114  147.8897 C.3     1  UNL111     -0.0556
     16 C         124.4958  152.2802  146.7900 C.3     1  UNL111     -0.0746
     17 C         124.7231  154.4517  145.7492 C.3     1  UNL111     -0.0746
     18 C         114.4215  155.1852  144.8918 C.3     1  UNL111     -0.0446
     19 C         116.8392  150.0012  145.6895 C.3     1  UNL111     -0.0787
     20 C         116.3078  150.3655  148.0191 C.3     1  UNL111     -0.0787
     21 C         125.4334  151.7575  145.8985 C.3     1  UNL111     -0.0834
     22 C         125.6597  153.9236  144.8597 C.3     1  UNL111     -0.0834
     23 C         116.4047  149.5113  146.9208 C.3     1  UNL111     -0.0844
     24 C         126.0122  152.5781  144.9333 C.3     1  UNL111     -0.0861
     25 H         121.7596  152.7146  147.1794 H       1  UNL111      0.1349
     26 H         118.7669  155.0726  147.0691 H       1  UNL111      0.0863
     27 H         119.4209  154.2299  144.8148 H       1  UNL111      0.0551
     28 H         119.8921  152.6914  145.5188 H       1  UNL111      0.0551
     29 H         119.4721  152.2870  148.0903 H       1  UNL111      0.0551
     30 H         118.7097  153.5782  149.0218 H       1  UNL111      0.0551
     31 H         121.8671  154.0947  145.2506 H       1  UNL111      0.0744
     32 H         121.1308  155.4258  146.1914 H       1  UNL111      0.0744
     33 H         120.7087  155.0367  148.6805 H       1  UNL111      0.0744
     34 H         121.1843  153.4568  149.3695 H       1  UNL111      0.0744
     35 H         123.3233  153.8510  148.6808 H       1  UNL111      0.0876
     36 H         123.0893  155.2871  147.6697 H       1  UNL111      0.0876
     37 H         114.7601  153.6383  146.3334 H       1  UNL111      0.0734
     38 H         115.3003  153.2460  144.6830 H       1  UNL111      0.0734
     39 H         117.5104  151.7166  144.5875 H       1  UNL111      0.0993
     40 H         116.5434  152.3719  148.7456 H       1  UNL111      0.0993
     41 H         124.0746  151.6175  147.5435 H       1  UNL111      0.0924
     42 H         124.4739  155.5086  145.6711 H       1  UNL111      0.0924
     43 H         114.3560  156.0024  145.6177 H       1  UNL111      0.0319
     44 H         113.4060  154.8468  144.6640 H       1  UNL111      0.0319
     45 H         114.8613  155.5864  143.9727 H       1  UNL111      0.0319
     46 H         116.8972  149.3345  144.8318 H       1  UNL111      0.0890
     47 H         115.9478  149.9828  148.9717 H       1  UNL111      0.0890
     48 H         125.7240  150.7102  145.9584 H       1  UNL111      0.0880
     49 H         126.1236  154.5616  144.1096 H       1  UNL111      0.0880
     50 H         116.1251  148.4643  147.0206 H       1  UNL111      0.0876
     51 H         126.7481  152.1704  144.2427 H       1  UNL111      0.0874
@<TRIPOS>UNITY_ATOM_ATTR
2 1
charge 1
@<TRIPOS>BOND
     1     1    11    2
     2     2     7    1
     3     2     8    1
     4     2     9    1
     5     3     4    1
     6     3    10    1
     7     3    11   am
     8     4     5    1
     9     4     6    1
    10     5     7    1
    11     6     8    1
    12     9    12    1
    13    10    14   ar
    14    10    15   ar
    15    11    13    1
    16    12    16   ar
    17    12    17   ar
    18    13    18    1
    19    14    19   ar
    20    15    20   ar
    21    16    21   ar
    22    17    22   ar
    23    19    23   ar
    24    20    23   ar
    25    21    24   ar
    26    22    24   ar
    27     2    25    1
    28     4    26    1
    29     5    27    1
    30     5    28    1
    31     6    29    1
    32     6    30    1
    33     7    31    1
    34     7    32    1
    35     8    33    1
    36     8    34    1
    37     9    35    1
    38     9    36    1
    39    13    37    1
    40    13    38    1
    41    14    39    1
    42    15    40    1
    43    16    41    1
    44    17    42    1
    45    18    43    1
    46    18    44    1
    47    18    45    1
    48    19    46    1
    49    20    47    1
    50    21    48    1
    51    22    49    1
    52    23    50    1
    53    24    51    1
@<TRIPOS>MOLECULE
42853213
 52 55 0 0 0
SMALL
GASTEIGER

@<TRIPOS>ATOM
      1 O         119.1748  151.1391  146.2980 O.2     1  UNL111     -0.3466
      2 O         115.7995  151.7480  147.1365 O.2     1  UNL111     -0.5186
      3 N         122.4075  153.6223  147.3776 N.4     1  UNL111      0.4292
      4 N         118.2330  153.2152  146.5882 N.am    1  UNL111     -0.2696
      5 C         119.5438  153.8172  146.9266 C.3     1  UNL111      0.0218
      6 C         120.5414  153.7218  145.7596 C.3     1  UNL111     -0.0322
      7 C         120.1209  153.2512  148.2333 C.3     1  UNL111     -0.0322
      8 C         121.8983  154.2963  146.1272 C.3     1  UNL111     -0.0355
      9 C         121.4842  153.8408  148.5459 C.3     1  UNL111     -0.0355
     10 C         123.8345  154.0104  147.7126 C.3     1  UNL111     -0.0146
     11 C         117.1767  154.1140  146.2283 C.3     1  UNL111     -0.0008
     12 C         118.1438  151.8097  146.4177 C.2     1  UNL111      0.2416
     13 C         124.8405  153.4271  146.7587 C.3     1  UNL111     -0.0704
     14 C         116.4194  153.9024  145.0671 C.3     1  UNL111     -0.0550
     15 C         116.9063  155.2482  147.0069 C.3     1  UNL111     -0.0550
     16 C         116.8437  151.1592  146.4737 C.3     1  UNL111      0.1550
     17 C         125.1308  152.0533  146.7861 C.3     1  UNL111     -0.0746
     18 C         125.4896  154.2400  145.8171 C.3     1  UNL111     -0.0746
     19 C         115.4121  154.7985  144.6996 C.3     1  UNL111     -0.0786
     20 C         115.8964  156.1420  146.6397 C.3     1  UNL111     -0.0786
     21 C         126.0459  151.5065  145.8858 C.3     1  UNL111     -0.0834
     22 C         126.4034  153.6877  144.9184 C.3     1  UNL111     -0.0834
     23 C         116.4450  149.9144  146.0186 C.3     1  UNL111      0.0123
     24 C         115.1511  155.9174  145.4856 C.3     1  UNL111     -0.0844
     25 C         126.6793  152.3228  144.9520 C.3     1  UNL111     -0.0861
     26 C         115.0850  149.7605  146.3794 C.3     1  UNL111     -0.0179
     27 C         114.7394  150.9046  147.0570 C.3     1  UNL111      0.0348
     28 H         122.4343  152.6102  147.1828 H       1  UNL111      0.1349
     29 H         119.4030  154.8909  147.1017 H       1  UNL111      0.0870
     30 H         120.1427  154.2590  144.8902 H       1  UNL111      0.0551
     31 H         120.6860  152.6875  145.4331 H       1  UNL111      0.0551
     32 H         120.2193  152.1615  148.1920 H       1  UNL111      0.0551
     33 H         119.4326  153.4625  149.0608 H       1  UNL111      0.0551
     34 H         122.6112  154.1083  145.3195 H       1  UNL111      0.0744
     35 H         121.8480  155.3729  146.3249 H       1  UNL111      0.0744
     36 H         121.4339  154.9188  148.7356 H       1  UNL111      0.0744
     37 H         121.9213  153.3394  149.4159 H       1  UNL111      0.0744
     38 H         124.0489  153.6391  148.7220 H       1  UNL111      0.0876
     39 H         123.8781  155.1055  147.7427 H       1  UNL111      0.0876
     40 H         116.6081  153.0527  144.4162 H       1  UNL111      0.0994
     41 H         117.4340  155.4302  147.9382 H       1  UNL111      0.0994
     42 H         124.6643  151.3915  147.5135 H       1  UNL111      0.0924
     43 H         125.3010  155.3110  145.7707 H       1  UNL111      0.0924
     44 H         114.8290  154.6207  143.7988 H       1  UNL111      0.0890
     45 H         115.6786  157.0062  147.2630 H       1  UNL111      0.0890
     46 H         126.2746  150.4427  145.9141 H       1  UNL111      0.0880
     47 H         126.9093  154.3212  144.1921 H       1  UNL111      0.0880
     48 H         117.0692  149.2082  145.4875 H       1  UNL111      0.1194
     49 H         114.3604  156.6087  145.2030 H       1  UNL111      0.0876
     50 H         127.3967  151.8954  144.2541 H       1  UNL111      0.0874
     51 H         114.4387  148.9165  146.1807 H       1  UNL111      0.1107
     52 H         113.8290  151.2508  147.5275 H       1  UNL111      0.1750
@<TRIPOS>UNITY_ATOM_ATTR
3 1
charge 1
@<TRIPOS>BOND
     1     1    12    2
     2     2    16   ar
     3     2    27   ar
     4     3     8    1
     5     3     9    1
     6     3    10    1
     7     4     5    1
     8     4    11    1
     9     4    12   am
    10     5     6    1
    11     5     7    1
    12     6     8    1
    13     7     9    1
    14    10    13    1
    15    11    14   ar
    16    11    15   ar
    17    12    16    1
    18    13    17   ar
    19    13    18   ar
    20    14    19   ar
    21    15    20   ar
    22    16    23   ar
    23    17    21   ar
    24    18    22   ar
    25    19    24   ar
    26    20    24   ar
    27    21    25   ar
    28    22    25   ar
    29    23    26   ar
    30    26    27   ar
    31     3    28    1
    32     5    29    1
    33     6    30    1
    34     6    31    1
    35     7    32    1
    36     7    33    1
    37     8    34    1
    38     8    35    1
    39     9    36    1
    40     9    37    1
    41    10    38    1
    42    10    39    1
    43    14    40    1
    44    15    41    1
    45    17    42    1
    46    18    43    1
    47    19    44    1
    48    20    45    1
    49    21    46    1
    50    22    47    1
    51    23    48    1
    52    24    49    1
    53    25    50    1
    54    26    51    1
    55    27    52    1
@<TRIPOS>MOLECULE
154572819
 52 55 0 0 0
SMALL
GASTEIGER

@<TRIPOS>ATOM
      1 F         113.4767  150.5975  146.8979 F       1  UNL111     -0.2904
      2 O         119.3991  155.4367  146.8492 O.2     1  UNL111     -0.3806
      3 N         118.1813  153.5254  146.3847 N.am    1  UNL111     -0.2892
      4 N         122.2445  152.6978  145.4037 N.4     1  UNL111      0.4292
      5 C         117.0786  155.6976  146.9537 C.3     1  UNL111      0.0421
      6 C         116.9367  156.9982  146.1882 C.3     1  UNL111     -0.0308
      7 C         116.0362  155.8462  145.8683 C.3     1  UNL111     -0.0308
      8 C         119.3871  152.7945  145.9296 C.3     1  UNL111      0.0178
      9 C         118.3084  154.8776  146.7537 C.2     1  UNL111      0.1541
     10 C         120.0010  153.4229  144.6689 C.3     1  UNL111     -0.0327
     11 C         120.4160  152.6324  147.0625 C.3     1  UNL111     -0.0327
     12 C         121.2790  152.7193  144.2503 C.3     1  UNL111     -0.0355
     13 C         121.6847  151.9475  146.5864 C.3     1  UNL111     -0.0355
     14 C         116.9659  152.7864  146.5135 C.3     1  UNL111     -0.0004
     15 C         123.6098  152.1924  144.9794 C.3     1  UNL111     -0.0146
     16 C         124.6916  152.5074  145.9757 C.3     1  UNL111     -0.0704
     17 C         116.1821  152.8882  147.6725 C.3     1  UNL111     -0.0401
     18 C         116.5514  151.9151  145.4936 C.3     1  UNL111     -0.0401
     19 C         115.0022  152.1501  147.8016 C.3     1  UNL111     -0.0167
     20 C         115.3697  151.1801  145.6222 C.3     1  UNL111     -0.0167
     21 C         125.1371  153.8280  146.1475 C.3     1  UNL111     -0.0746
     22 C         125.2597  151.4914  146.7593 C.3     1  UNL111     -0.0746
     23 C         114.6059  151.3051  146.7745 C.3     1  UNL111      0.0844
     24 C         126.1239  154.1238  147.0887 C.3     1  UNL111     -0.0834
     25 C         126.2461  151.7927  147.6993 C.3     1  UNL111     -0.0834
     26 C         126.6755  153.1074  147.8648 C.3     1  UNL111     -0.0861
     27 H         122.3923  153.6716  145.7094 H       1  UNL111      0.1349
     28 H         116.7559  155.7561  147.9886 H       1  UNL111      0.0811
     29 H         117.7053  157.2630  145.4706 H       1  UNL111      0.0406
     30 H         116.5127  157.8486  146.7108 H       1  UNL111      0.0406
     31 H         114.9971  155.9118  146.1723 H       1  UNL111      0.0406
     32 H         116.1848  155.3419  144.9204 H       1  UNL111      0.0406
     33 H         119.0949  151.7720  145.6569 H       1  UNL111      0.0863
     34 H         120.2276  154.4837  144.8182 H       1  UNL111      0.0551
     35 H         119.2754  153.3826  143.8473 H       1  UNL111      0.0551
     36 H         119.9722  152.0503  147.8797 H       1  UNL111      0.0551
     37 H         120.6937  153.5970  147.4986 H       1  UNL111      0.0551
     38 H         121.0972  151.6823  143.9465 H       1  UNL111      0.0744
     39 H         121.7546  153.2603  143.4254 H       1  UNL111      0.0744
     40 H         122.4311  151.9552  147.3857 H       1  UNL111      0.0744
     41 H         121.5004  150.9147  146.2706 H       1  UNL111      0.0744
     42 H         123.8568  152.6742  144.0257 H       1  UNL111      0.0876
     43 H         123.5168  151.1153  144.7969 H       1  UNL111      0.0876
     44 H         116.4905  153.5084  148.5098 H       1  UNL111      0.1023
     45 H         117.1088  151.8280  144.5655 H       1  UNL111      0.1023
     46 H         114.3951  152.2238  148.6992 H       1  UNL111      0.1104
     47 H         115.0334  150.5192  144.8287 H       1  UNL111      0.1104
     48 H         124.7374  154.6425  145.5462 H       1  UNL111      0.0924
     49 H         124.9508  150.4535  146.6484 H       1  UNL111      0.0924
     50 H         126.4723  155.1472  147.2152 H       1  UNL111      0.0880
     51 H         126.6887  151.0020  148.3024 H       1  UNL111      0.0880
     52 H         127.4490  153.3393  148.5945 H       1  UNL111      0.0874
@<TRIPOS>UNITY_ATOM_ATTR
4 1
charge 1
@<TRIPOS>BOND
     1     1    23    1
     2     2     9    2
     3     3     8    1
     4     3     9   am
     5     3    14    1
     6     4    12    1
     7     4    13    1
     8     4    15    1
     9     5     6    1
    10     5     7    1
    11     5     9    1
    12     6     7    1
    13     8    10    1
    14     8    11    1
    15    10    12    1
    16    11    13    1
    17    14    17   ar
    18    14    18   ar
    19    15    16    1
    20    16    21   ar
    21    16    22   ar
    22    17    19   ar
    23    18    20   ar
    24    19    23   ar
    25    20    23   ar
    26    21    24   ar
    27    22    25   ar
    28    24    26   ar
    29    25    26   ar
    30     4    27    1
    31     5    28    1
    32     6    29    1
    33     6    30    1
    34     7    31    1
    35     7    32    1
    36     8    33    1
    37    10    34    1
    38    10    35    1
    39    11    36    1
    40    11    37    1
    41    12    38    1
    42    12    39    1
    43    13    40    1
    44    13    41    1
    45    15    42    1
    46    15    43    1
    47    17    44    1
    48    18    45    1
    49    19    46    1
    50    20    47    1
    51    21    48    1
    52    22    49    1
    53    24    50    1
    54    25    51    1
    55    26    52    1
@<TRIPOS>MOLECULE
12107
 22 22 0 0 0
SMALL
GASTEIGER

@<TRIPOS>ATOM
      1 O         121.7565  151.7993  146.4142 O.2     1  UNL1111    -0.3840
      2 N         120.5860  153.8194  146.4014 N.am    1  UNL1111    -0.2934
      3 C         119.2397  153.3993  146.4053 C.3     1  UNL1111    -0.0099
      4 C         122.9858  153.8698  146.3974 C.3     1  UNL1111     0.0325
      5 C         121.7213  153.0238  146.4059 C.2     1  UNL1111     0.1458
      6 C         118.2582  154.3999  146.4034 C.3     1  UNL1111    -0.0569
      7 C         118.8371  152.0629  146.4109 C.3     1  UNL1111    -0.0569
      8 C         124.2521  153.0328  146.4226 C.3     1  UNL1111    -0.0447
      9 C         116.9003  154.0690  146.4072 C.3     1  UNL1111    -0.0789
     10 C         117.4779  151.7315  146.4145 C.3     1  UNL1111    -0.0789
     11 C         116.5103  152.7330  146.4128 C.3     1  UNL1111    -0.0844
     12 H         120.7346  154.8203  146.3955 H       1  UNL1111     0.2039
     13 H         122.9674  154.5316  147.2709 H       1  UNL1111     0.0732
     14 H         122.9780  154.4953  145.4974 H       1  UNL1111     0.0732
     15 H         118.5338  155.4509  146.3992 H       1  UNL1111     0.0991
     16 H         119.5558  151.2495  146.4122 H       1  UNL1111     0.0991
     17 H         124.2919  152.4075  147.3207 H       1  UNL1111     0.0319
     18 H         125.1358  153.6781  146.4158 H       1  UNL1111     0.0319
     19 H         124.3043  152.3720  145.5510 H       1  UNL1111     0.0319
     20 H         116.1488  154.8541  146.4060 H       1  UNL1111     0.0890
     21 H         117.1801  150.6859  146.4187 H       1  UNL1111     0.0890
     22 H         115.4556  152.4708  146.4158 H       1  UNL1111     0.0876
@<TRIPOS>BOND
     1     1     5    2
     2     2     3    1
     3     2     5   am
     4     3     6   ar
     5     3     7   ar
     6     4     5    1
     7     4     8    1
     8     6     9   ar
     9     7    10   ar
    10     9    11   ar
    11    10    11   ar
    12     2    12    1
    13     4    13    1
    14     4    14    1
    15     6    15    1
    16     7    16    1
    17     8    17    1
    18     8    18    1
    19     8    19    1
    20     9    20    1
    21    10    21    1
    22    11    22    1
@<TRIPOS>MOLECULE
62300
 54 56 0 0 0
SMALL
GASTEIGER

@<TRIPOS>ATOM
      1 F         114.8699  148.8364  146.6476 F       1  UNL111     -0.2904
      2 O         116.9800  156.0734  145.8693 O.2     1  UNL111     -0.3824
      3 N         121.3684  153.2900  146.7256 N.4     1  UNL111      0.4267
      4 N         117.0914  153.9032  146.6060 N.am    1  UNL111     -0.2902
      5 C         118.5465  154.0483  146.8006 C.3     1  UNL111      0.0176
      6 C         119.3051  153.8707  145.4772 C.3     1  UNL111     -0.0330
      7 C         119.1696  153.1555  147.8801 C.3     1  UNL111     -0.0330
      8 C         120.7821  154.1802  145.6502 C.3     1  UNL111     -0.0370
      9 C         120.6495  153.4666  148.0476 C.3     1  UNL111     -0.0370
     10 C         122.8712  153.4953  146.9043 C.3     1  UNL111     -0.0358
     11 C         123.6627  152.9116  145.7305 C.3     1  UNL111     -0.0312
     12 C         116.5179  152.6090  146.6140 C.3     1  UNL111     -0.0006
     13 C         116.3902  155.0211  146.1264 C.2     1  UNL111      0.1497
     14 C         125.1431  152.9986  145.9951 C.3     1  UNL111     -0.0753
     15 C         114.8820  154.8806  145.9542 C.3     1  UNL111      0.0336
     16 C         116.1722  152.0084  147.8299 C.3     1  UNL111     -0.0401
     17 C         116.2879  151.9356  145.4077 C.3     1  UNL111     -0.0401
     18 C         114.2064  156.2190  145.7037 C.3     1  UNL111     -0.0446
     19 C         125.8576  154.1565  145.6564 C.3     1  UNL111     -0.0811
     20 C         125.8182  151.9377  146.6149 C.3     1  UNL111     -0.0811
     21 C         115.6134  150.7296  147.8389 C.3     1  UNL111     -0.0167
     22 C         115.7299  150.6567  145.4216 C.3     1  UNL111     -0.0167
     23 C         115.4009  150.0648  146.6361 C.3     1  UNL111      0.0844
     24 C         127.2225  154.2485  145.9315 C.3     1  UNL111     -0.0857
     25 C         127.1832  152.0343  146.8884 C.3     1  UNL111     -0.0857
     26 C         127.8841  153.1890  146.5480 C.3     1  UNL111     -0.0868
     27 H         121.2361  152.3099  146.4370 H       1  UNL111      0.1323
     28 H         118.7083  155.0843  147.1314 H       1  UNL111      0.0863
     29 H         118.8922  154.5295  144.7045 H       1  UNL111      0.0550
     30 H         119.1847  152.8451  145.1060 H       1  UNL111      0.0550
     31 H         119.0556  152.0949  147.6244 H       1  UNL111      0.0550
     32 H         118.6631  153.3145  148.8390 H       1  UNL111      0.0550
     33 H         121.3148  153.9768  144.7178 H       1  UNL111      0.0741
     34 H         120.9515  155.2205  145.9493 H       1  UNL111      0.0741
     35 H         120.8180  154.4964  148.3821 H       1  UNL111      0.0741
     36 H         121.1023  152.7718  148.7627 H       1  UNL111      0.0741
     37 H         123.1496  152.9832  147.8329 H       1  UNL111      0.0751
     38 H         123.0444  154.5700  147.0332 H       1  UNL111      0.0751
     39 H         123.4381  153.4411  144.7979 H       1  UNL111      0.0589
     40 H         123.3802  151.8647  145.5624 H       1  UNL111      0.0589
     41 H         114.4555  154.4323  146.8576 H       1  UNL111      0.0734
     42 H         114.6812  154.2210  145.1044 H       1  UNL111      0.0734
     43 H         116.3084  152.5352  148.7708 H       1  UNL111      0.1023
     44 H         116.5342  152.3971  144.4546 H       1  UNL111      0.1023
     45 H         114.3923  156.9132  146.5299 H       1  UNL111      0.0319
     46 H         113.1247  156.0867  145.6038 H       1  UNL111      0.0319
     47 H         114.5794  156.6829  144.7846 H       1  UNL111      0.0319
     48 H         125.3686  154.9958  145.1665 H       1  UNL111      0.0893
     49 H         125.2980  151.0210  146.8844 H       1  UNL111      0.0893
     50 H         115.3299  150.2507  148.7717 H       1  UNL111      0.1104
     51 H         115.5406  150.1198  144.4965 H       1  UNL111      0.1104
     52 H         127.7761  155.1449  145.6597 H       1  UNL111      0.0876
     53 H         127.7061  151.2063  147.3622 H       1  UNL111      0.0876
     54 H         128.9494  153.2603  146.7566 H       1  UNL111      0.0874
@<TRIPOS>UNITY_ATOM_ATTR
3 1
charge 1
@<TRIPOS>BOND
     1     1    23    1
     2     2    13    2
     3     3     8    1
     4     3     9    1
     5     3    10    1
     6     4     5    1
     7     4    12    1
     8     4    13   am
     9     5     6    1
    10     5     7    1
    11     6     8    1
    12     7     9    1
    13    10    11    1
    14    11    14    1
    15    12    16   ar
    16    12    17   ar
    17    13    15    1
    18    14    19   ar
    19    14    20   ar
    20    15    18    1
    21    16    21   ar
    22    17    22   ar
    23    19    24   ar
    24    20    25   ar
    25    21    23   ar
    26    22    23   ar
    27    24    26   ar
    28    25    26   ar
    29     3    27    1
    30     5    28    1
    31     6    29    1
    32     6    30    1
    33     7    31    1
    34     7    32    1
    35     8    33    1
    36     8    34    1
    37     9    35    1
    38     9    36    1
    39    10    37    1
    40    10    38    1
    41    11    39    1
    42    11    40    1
    43    15    41    1
    44    15    42    1
    45    16    43    1
    46    17    44    1
    47    18    45    1
    48    18    46    1
    49    18    47    1
    50    19    48    1
    51    20    49    1
    52    21    50    1
    53    22    51    1
    54    24    52    1
    55    25    53    1
    56    26    54    1
@<TRIPOS>MOLECULE
70865
 43 45 0 0 0
SMALL
GASTEIGER

@<TRIPOS>ATOM
      1 N         118.5475  151.9489  146.2702 N.4     1  UNL111      0.4292
      2 N         122.1552  151.9963  146.1937 N.pl3   1  UNL111     -0.4102
      3 C         121.2842  151.6082  147.2982 C.3     1  UNL111     -0.0001
      4 C         120.3762  152.7650  147.7276 C.3     1  UNL111     -0.0358
      5 C         120.4160  150.4197  146.8698 C.3     1  UNL111     -0.0358
      6 C         119.3902  153.1508  146.6383 C.3     1  UNL111     -0.0360
      7 C         119.3977  150.7975  145.8034 C.3     1  UNL111     -0.0360
      8 C         117.4797  152.2897  145.2472 C.3     1  UNL111     -0.0146
      9 C         116.3933  153.1703  145.8011 C.ar    1  UNL111     -0.0704
     10 C         123.2191  152.8870  146.3025 C.ar    1  UNL111     -0.0247
     11 C         115.4487  152.6545  146.7031 C.ar    1  UNL111     -0.0746
     12 C         116.3203  154.5245  145.4410 C.ar    1  UNL111     -0.0746
     13 C         123.8600  153.2978  145.1234 C.ar    1  UNL111     -0.0592
     14 C         123.6481  153.4602  147.5040 C.ar    1  UNL111     -0.0592
     15 C         114.4579  153.4799  147.2364 C.ar    1  UNL111     -0.0834
     16 C         115.3276  155.3455  145.9773 C.ar    1  UNL111     -0.0834
     17 C         124.9043  154.2270  145.1446 C.ar    1  UNL111     -0.0792
     18 C         124.6939  154.3901  147.5323 C.ar    1  UNL111     -0.0792
     19 C         114.3995  154.8239  146.8753 C.ar    1  UNL111     -0.0861
     20 C         125.3224  154.7733  146.3523 C.ar    1  UNL111     -0.0845
     21 H         118.0406  151.6596  147.1158 H       1  UNL111      0.1349
     22 H         122.3034  151.3257  145.4411 H       1  UNL111      0.1809
     23 H         121.8970  151.2827  148.1475 H       1  UNL111      0.0813
     24 H         120.9536  153.6521  148.0050 H       1  UNL111      0.0544
     25 H         119.8218  152.4683  148.6278 H       1  UNL111      0.0544
     26 H         119.8863  150.0279  147.7479 H       1  UNL111      0.0544
     27 H         121.0462  149.6045  146.4939 H       1  UNL111      0.0544
     28 H         118.7186  153.9285  147.0132 H       1  UNL111      0.0744
     29 H         119.8850  153.5073  145.7284 H       1  UNL111      0.0744
     30 H         119.8756  151.0956  144.8635 H       1  UNL111      0.0744
     31 H         118.7268  149.9535  145.6104 H       1  UNL111      0.0744
     32 H         117.0343  151.3447  144.9131 H       1  UNL111      0.0876
     33 H         117.9820  152.7458  144.3858 H       1  UNL111      0.0876
     34 H         115.4570  151.6052  146.9913 H       1  UNL111      0.0924
     35 H         117.0276  154.9597  144.7368 H       1  UNL111      0.0924
     36 H         123.5501  152.8967  144.1614 H       1  UNL111      0.0987
     37 H         123.2052  153.1807  148.4545 H       1  UNL111      0.0987
     38 H         113.7210  153.0767  147.9287 H       1  UNL111      0.0880
     39 H         115.2704  156.3942  145.6915 H       1  UNL111      0.0880
     40 H         125.3899  154.5228  144.2179 H       1  UNL111      0.0890
     41 H         125.0219  154.8104  148.4802 H       1  UNL111      0.0890
     42 H         113.6223  155.4649  147.2872 H       1  UNL111      0.0874
     43 H         126.1371  155.4929  146.3748 H       1  UNL111      0.0876
@<TRIPOS>UNITY_ATOM_ATTR
1 1
charge 1
@<TRIPOS>BOND
     1     1     6    1
     2     1     7    1
     3     1     8    1
     4     2     3    1
     5     2    10    1
     6     3     4    1
     7     3     5    1
     8     4     6    1
     9     5     7    1
    10     8     9    1
    11     9    11   ar
    12     9    12   ar
    13    10    13   ar
    14    10    14   ar
    15    11    15   ar
    16    12    16   ar
    17    13    17   ar
    18    14    18   ar
    19    15    19   ar
    20    16    19   ar
    21    17    20   ar
    22    18    20   ar
    23     1    21    1
    24     2    22    1
    25     3    23    1
    26     4    24    1
    27     4    25    1
    28     5    26    1
    29     5    27    1
    30     6    28    1
    31     6    29    1
    32     7    30    1
    33     7    31    1
    34     8    32    1
    35     8    33    1
    36    11    34    1
    37    12    35    1
    38    13    36    1
    39    14    37    1
    40    15    38    1
    41    16    39    1
    42    17    40    1
    43    18    41    1
    44    19    42    1
    45    20    43    1
@<TRIPOS>MOLECULE
14402357
 57 59 0 0 0
SMALL
GASTEIGER

@<TRIPOS>ATOM
      1 O         116.6678  150.6297  145.5482 O.2     1  UNL111     -0.3812
      2 N         121.3837  152.8991  146.1647 N.4     1  UNL111      0.4267
      3 N         117.0786  152.6820  146.4891 N.am    1  UNL111     -0.2900
      4 C         118.5255  152.3843  146.4599 C.3     1  UNL111      0.0177
      5 C         119.1473  152.7240  145.0974 C.3     1  UNL111     -0.0330
      6 C         119.3550  153.0058  147.5875 C.3     1  UNL111     -0.0330
      7 C         120.5949  152.2692  145.0316 C.3     1  UNL111     -0.0370
      8 C         120.8005  152.5367  147.5128 C.3     1  UNL111     -0.0370
      9 C         122.8648  152.5509  146.0397 C.3     1  UNL111     -0.0358
     10 C         116.2144  151.6742  146.0267 C.2     1  UNL111      0.1520
     11 C         123.7298  153.4343  146.9438 C.3     1  UNL111     -0.0312
     12 C         116.6668  154.0403  146.5578 C.3     1  UNL111     -0.0052
     13 C         114.7042  151.8664  146.2330 C.3     1  UNL111      0.0357
     14 C         125.1938  153.2276  146.6566 C.3     1  UNL111     -0.0753
     15 C         116.7084  154.7331  147.7705 C.3     1  UNL111     -0.0555
     16 C         116.2261  154.6967  145.4014 C.3     1  UNL111     -0.0555
     17 C         114.3596  151.6619  147.7077 C.3     1  UNL111     -0.0428
     18 C         113.9120  150.8840  145.3695 C.3     1  UNL111     -0.0428
     19 C         116.3228  156.0737  147.8250 C.3     1  UNL111     -0.0787
     20 C         115.8428  156.0371  145.4585 C.3     1  UNL111     -0.0787
     21 C         125.8793  152.1363  147.2093 C.3     1  UNL111     -0.0811
     22 C         125.8837  154.1099  145.8137 C.3     1  UNL111     -0.0811
     23 C         115.8942  156.7253  146.6694 C.3     1  UNL111     -0.0844
     24 C         127.2302  151.9342  146.9239 C.3     1  UNL111     -0.0857
     25 C         127.2349  153.9045  145.5319 C.3     1  UNL111     -0.0857
     26 C         127.9069  152.8171  146.0855 C.3     1  UNL111     -0.0868
     27 H         121.3116  153.9204  146.0483 H       1  UNL111      0.1323
     28 H         118.6192  151.2970  146.5922 H       1  UNL111      0.0863
     29 H         119.0956  153.8047  144.9143 H       1  UNL111      0.0550
     30 H         118.5838  152.2441  144.2886 H       1  UNL111      0.0550
     31 H         118.9361  152.7247  148.5607 H       1  UNL111      0.0550
     32 H         119.3406  154.1003  147.5294 H       1  UNL111      0.0550
     33 H         120.6901  151.1817  145.1255 H       1  UNL111      0.0741
     34 H         121.0526  152.5966  144.0922 H       1  UNL111      0.0741
     35 H         121.3893  153.0413  148.2828 H       1  UNL111      0.0741
     36 H         120.8907  151.4517  147.6350 H       1  UNL111      0.0741
     37 H         123.1345  152.7112  144.9892 H       1  UNL111      0.0751
     38 H         122.9733  151.4852  146.2719 H       1  UNL111      0.0751
     39 H         123.5484  153.2134  148.0018 H       1  UNL111      0.0589
     40 H         123.4713  154.4913  146.8034 H       1  UNL111      0.0589
     41 H         114.4021  152.8723  145.9330 H       1  UNL111      0.0783
     42 H         117.0013  154.2329  148.6892 H       1  UNL111      0.0993
     43 H         116.1786  154.1753  144.4482 H       1  UNL111      0.0993
     44 H         114.6530  150.6620  148.0468 H       1  UNL111      0.0331
     45 H         113.2838  151.7769  147.8763 H       1  UNL111      0.0331
     46 H         114.8757  152.3853  148.3458 H       1  UNL111      0.0331
     47 H         114.1223  149.8445  145.6446 H       1  UNL111      0.0331
     48 H         114.1660  151.0062  144.3110 H       1  UNL111      0.0331
     49 H         112.8352  151.0509  145.4800 H       1  UNL111      0.0331
     50 H         116.3387  156.6086  148.7722 H       1  UNL111      0.0890
     51 H         115.4945  156.5442  144.5613 H       1  UNL111      0.0890
     52 H         125.3793  151.4372  147.8761 H       1  UNL111      0.0893
     53 H         125.3869  154.9722  145.3742 H       1  UNL111      0.0893
     54 H         115.5840  157.7673  146.7156 H       1  UNL111      0.0876
     55 H         127.7616  151.0912  147.3606 H       1  UNL111      0.0876
     56 H         127.7698  154.5964  144.8848 H       1  UNL111      0.0876
     57 H         128.9617  152.6620  145.8693 H       1  UNL111      0.0874
@<TRIPOS>UNITY_ATOM_ATTR
2 1
charge 1
@<TRIPOS>BOND
     1     1    10    2
     2     2     7    1
     3     2     8    1
     4     2     9    1
     5     3     4    1
     6     3    10   am
     7     3    12    1
     8     4     5    1
     9     4     6    1
    10     5     7    1
    11     6     8    1
    12     9    11    1
    13    10    13    1
    14    11    14    1
    15    12    15   ar
    16    12    16   ar
    17    13    17    1
    18    13    18    1
    19    14    21   ar
    20    14    22   ar
    21    15    19   ar
    22    16    20   ar
    23    19    23   ar
    24    20    23   ar
    25    21    24   ar
    26    22    25   ar
    27    24    26   ar
    28    25    26   ar
    29     2    27    1
    30     4    28    1
    31     5    29    1
    32     5    30    1
    33     6    31    1
    34     6    32    1
    35     7    33    1
    36     7    34    1
    37     8    35    1
    38     8    36    1
    39     9    37    1
    40     9    38    1
    41    11    39    1
    42    11    40    1
    43    13    41    1
    44    15    42    1
    45    16    43    1
    46    17    44    1
    47    17    45    1
    48    17    46    1
    49    18    47    1
    50    18    48    1
    51    18    49    1
    52    19    50    1
    53    20    51    1
    54    21    52    1
    55    22    53    1
    56    23    54    1
    57    24    55    1
    58    25    56    1
    59    26    57    1
@<TRIPOS>MOLECULE
6115
 14 14 0 0 0
SMALL
GASTEIGER

@<TRIPOS>ATOM
      1 N         117.4643  153.0966  146.4076 N.pl3   1  UNL1111    -0.4135
      2 C         118.8463  153.0967  146.4081 C.ar    1  UNL1111    -0.0288
      3 C         119.5582  154.2983  146.4079 C.ar    1  UNL1111    -0.0605
      4 C         119.5584  151.8951  146.4079 C.ar    1  UNL1111    -0.0605
      5 C         120.9558  154.3013  146.4081 C.ar    1  UNL1111    -0.0794
      6 C         120.9561  151.8924  146.4081 C.ar    1  UNL1111    -0.0794
      7 C         121.6552  153.0969  146.4083 C.ar    1  UNL1111    -0.0845
      8 H         116.9500  153.9658  146.4086 H       1  UNL1111     0.1722
      9 H         116.9500  152.2274  146.4091 H       1  UNL1111     0.1722
     10 H         119.0289  155.2470  146.4076 H       1  UNL1111     0.0984
     11 H         119.0292  150.9464  146.4077 H       1  UNL1111     0.0984
     12 H         121.4954  155.2444  146.4081 H       1  UNL1111     0.0890
     13 H         121.4958  150.9494  146.4081 H       1  UNL1111     0.0890
     14 H         122.7418  153.0970  146.4085 H       1  UNL1111     0.0876
@<TRIPOS>BOND
     1     1     2    1
     2     2     3   ar
     3     2     4   ar
     4     3     5   ar
     5     4     6   ar
     6     5     7   ar
     7     6     7   ar
     8     1     8    1
     9     1     9    1
    10     3    10    1
    11     4    11    1
    12     5    12    1
    13     6    13    1
    14     7    14    1
@<TRIPOS>MOLECULE
62156
 60 62 0 0 0
SMALL
GASTEIGER

@<TRIPOS>ATOM
      1 O         119.1738  155.7564  147.3033 O.3     1  UNL111     -0.5242
      2 O         117.6203  154.6569  148.5691 O.2     1  UNL111     -0.3272
      3 O         116.8693  155.3299  145.1931 O.2     1  UNL111     -0.3812
      4 N         121.4093  152.8548  146.4422 N.4     1  UNL111      0.4278
      5 N         117.1042  153.2412  146.1092 N.am    1  UNL111     -0.2518
      6 C         118.5076  153.5481  146.5709 C.3     1  UNL111      0.1416
      7 C         119.1701  152.3897  147.3679 C.3     1  UNL111      0.0011
      8 C         119.4049  153.8510  145.3438 C.3     1  UNL111      0.0011
      9 C         120.6224  152.6665  147.7148 C.3     1  UNL111     -0.0302
     10 C         120.8876  154.0216  145.6454 C.3     1  UNL111     -0.0302
     11 C         122.9027  152.9729  146.7495 C.3     1  UNL111     -0.0355
     12 C         118.3479  154.7134  147.5844 C.2     1  UNL111      0.2494
     13 C         116.5519  151.9626  146.3558 C.3     1  UNL111      0.0036
     14 C         123.7545  152.7485  145.4969 C.3     1  UNL111     -0.0312
     15 C         116.3718  154.2274  145.4313 C.2     1  UNL111      0.1568
     16 C         114.9404  153.8951  145.0217 C.3     1  UNL111      0.0345
     17 C         125.2195  152.7450  145.8470 C.3     1  UNL111     -0.0753
     18 C         116.5471  151.0003  145.3416 C.3     1  UNL111     -0.0544
     19 C         116.0107  151.6674  147.6101 C.3     1  UNL111     -0.0544
     20 C         114.2263  155.0876  144.4058 C.3     1  UNL111     -0.0445
     21 C         118.9747  156.8989  148.1435 C.3     1  UNL111      0.0468
     22 C         116.0091  149.7374  145.5891 C.3     1  UNL111     -0.0786
     23 C         115.4742  150.4031  147.8520 C.3     1  UNL111     -0.0786
     24 C         125.9489  153.9424  145.8589 C.3     1  UNL111     -0.0811
     25 C         125.8638  151.5506  146.1992 C.3     1  UNL111     -0.0811
     26 C         115.4759  149.4392  146.8435 C.3     1  UNL111     -0.0844
     27 C         127.2982  153.9426  146.2145 C.3     1  UNL111     -0.0857
     28 C         127.2132  151.5558  146.5548 C.3     1  UNL111     -0.0857
     29 C         127.9291  152.7508  146.5634 C.3     1  UNL111     -0.0868
     30 H         121.2953  151.9995  145.8785 H       1  UNL111      0.1325
     31 H         119.1302  151.4579  146.7887 H       1  UNL111      0.0646
     32 H         118.6361  152.2008  148.3069 H       1  UNL111      0.0646
     33 H         119.0838  154.7544  144.8164 H       1  UNL111      0.0646
     34 H         119.2935  153.0305  144.6210 H       1  UNL111      0.0646
     35 H         120.7544  153.5614  148.3321 H       1  UNL111      0.0752
     36 H         121.0493  151.8039  148.2377 H       1  UNL111      0.0752
     37 H         121.4418  154.0505  144.7027 H       1  UNL111      0.0752
     38 H         121.1154  154.9329  146.2043 H       1  UNL111      0.0752
     39 H         123.1306  152.2045  147.4976 H       1  UNL111      0.0751
     40 H         123.0705  153.9583  147.1996 H       1  UNL111      0.0751
     41 H         123.5709  153.5269  144.7479 H       1  UNL111      0.0589
     42 H         123.4888  151.7970  145.0195 H       1  UNL111      0.0589
     43 H         114.3802  153.5662  145.9029 H       1  UNL111      0.0735
     44 H         114.9594  153.0822  144.2892 H       1  UNL111      0.0735
     45 H         116.9469  151.2251  144.3566 H       1  UNL111      0.0994
     46 H         115.9850  152.4187  148.3970 H       1  UNL111      0.0994
     47 H         114.1805  155.9248  145.1101 H       1  UNL111      0.0319
     48 H         113.2028  154.8170  144.1288 H       1  UNL111      0.0319
     49 H         114.7435  155.4340  143.5049 H       1  UNL111      0.0319
     50 H         119.6126  157.7053  147.7717 H       1  UNL111      0.1103
     51 H         119.2694  156.6673  149.1715 H       1  UNL111      0.1103
     52 H         117.9331  157.2329  148.1013 H       1  UNL111      0.1103
     53 H         115.9909  148.9862  144.8023 H       1  UNL111      0.0890
     54 H         115.0406  150.1719  148.8228 H       1  UNL111      0.0890
     55 H         125.4842  154.8866  145.5830 H       1  UNL111      0.0893
     56 H         125.3318  150.6017  146.1933 H       1  UNL111      0.0893
     57 H         115.0456  148.4574  147.0316 H       1  UNL111      0.0876
     58 H         127.8638  154.8721  146.2141 H       1  UNL111      0.0876
     59 H         127.7126  150.6264  146.8202 H       1  UNL111      0.0876
     60 H         128.9825  152.7521  146.8350 H       1  UNL111      0.0874
@<TRIPOS>UNITY_ATOM_ATTR
4 1
charge 1
@<TRIPOS>BOND
     1     1    12    1
     2     1    21    1
     3     2    12    2
     4     3    15    2
     5     4     9    1
     6     4    10    1
     7     4    11    1
     8     5     6    1
     9     5    13    1
    10     5    15   am
    11     6     7    1
    12     6     8    1
    13     6    12    1
    14     7     9    1
    15     8    10    1
    16    11    14    1
    17    13    18   ar
    18    13    19   ar
    19    14    17    1
    20    15    16    1
    21    16    20    1
    22    17    24   ar
    23    17    25   ar
    24    18    22   ar
    25    19    23   ar
    26    22    26   ar
    27    23    26   ar
    28    24    27   ar
    29    25    28   ar
    30    27    29   ar
    31    28    29   ar
    32     4    30    1
    33     7    31    1
    34     7    32    1
    35     8    33    1
    36     8    34    1
    37     9    35    1
    38     9    36    1
    39    10    37    1
    40    10    38    1
    41    11    39    1
    42    11    40    1
    43    14    41    1
    44    14    42    1
    45    16    43    1
    46    16    44    1
    47    18    45    1
    48    19    46    1
    49    20    47    1
    50    20    48    1
    51    20    49    1
    52    21    50    1
    53    21    51    1
    54    21    52    1
    55    22    53    1
    56    23    54    1
    57    24    55    1
    58    25    56    1
    59    26    57    1
    60    27    58    1
    61    28    59    1
    62    29    60    1
@<TRIPOS>MOLECULE
137699860
 33 35 0 0 0
SMALL
GASTEIGER

@<TRIPOS>ATOM
      1 O         117.6361  155.9500  145.5490 O.2     1  UNL111     -0.3751
      2 N         121.9480  152.8859  144.5816 N.4     1  UNL111      0.4556
      3 N         117.5251  153.6738  146.0814 N.am    1  UNL111     -0.2643
      4 C         118.8691  153.4418  145.8161 C.3     1  UNL111      0.1077
      5 C         119.4422  152.1493  145.5240 C.3     1  UNL111      0.0830
      6 C         119.8643  154.4420  145.5256 C.3     1  UNL111      0.0830
      7 C         120.8650  151.9351  144.9495 C.3     1  UNL111      0.0648
      8 C         121.2710  154.1563  144.9528 C.3     1  UNL111      0.0648
      9 C         123.1792  152.6618  145.3114 C.3     1  UNL111      0.0661
     10 C         124.4855  152.4230  146.0742 C.3     1  UNL111      0.0776
     11 C         117.0229  154.9962  146.0186 C.2     1  UNL111      0.1817
     12 C         116.6411  152.5860  146.4022 C.3     1  UNL111     -0.0002
     13 C         115.7266  155.2898  146.5945 C.3     1  UNL111      0.1385
     14 C         125.7038  152.2002  146.7796 C.2     1  UNL111     -0.0058
     15 C         114.3582  155.6065  147.2093 C.3     1  UNL111      0.0433
     16 C         115.4157  152.4380  145.7340 C.3     1  UNL111     -0.0549
     17 C         117.0005  151.6365  147.3714 C.3     1  UNL111     -0.0549
     18 C         112.9870  155.9078  147.8228 C.3     1  UNL111      0.0082
     19 C         114.5646  151.3733  146.0393 C.3     1  UNL111     -0.0786
     20 C         116.1450  150.5750  147.6766 C.3     1  UNL111     -0.0786
     21 C         125.6730  151.8767  148.1338 C.2     1  UNL111     -0.0052
     22 C         126.9212  152.3052  146.1112 C.2     1  UNL111     -0.0052
     23 C         114.9286  150.4447  147.0110 C.3     1  UNL111     -0.0844
     24 C         111.6141  156.1914  148.4341 C.3     1  UNL111      0.0010
     25 C         126.8644  151.6578  148.8216 C.2     1  UNL111     -0.0019
     26 C         128.1119  152.0860  146.8002 C.2     1  UNL111     -0.0019
     27 C         128.0831  151.7624  148.1549 C.2     1  UNL111     -0.0007
     28 H         122.1100  152.8616  143.5674 H       1  UNL111      0.1720
     29 H         115.1139  153.1240  144.9454 H       1  UNL111      0.0994
     30 H         117.9246  151.7289  147.9361 H       1  UNL111      0.0994
     31 H         113.6167  151.2645  145.5157 H       1  UNL111      0.0890
     32 H         116.4198  149.8536  148.4434 H       1  UNL111      0.0890
     33 H         114.2610  149.6196  147.2518 H       1  UNL111      0.0876
@<TRIPOS>UNITY_ATOM_ATTR
2 1
charge 1
@<TRIPOS>BOND
     1     1    11    2
     2     2     7    1
     3     2     8    1
     4     2     9    1
     5     3     4    1
     6     3    11   am
     7     3    12    1
     8     4     5    1
     9     4     6    1
    10     5     7    1
    11     6     8    1
    12     9    10    1
    13    10    14    1
    14    11    13    1
    15    12    16   ar
    16    12    17   ar
    17    13    15    1
    18    14    21    2
    19    14    22    1
    20    15    18    1
    21    16    19   ar
    22    17    20   ar
    23    18    24    1
    24    19    23   ar
    25    20    23   ar
    26    21    25    1
    27    22    26    2
    28    25    27    2
    29    26    27    1
    30     2    28    1
    31    16    29    1
    32    17    30    1
    33    19    31    1
    34    20    32    1
    35    23    33    1
@<TRIPOS>MOLECULE
968688
 55 57 0 0 0
SMALL
GASTEIGER

@<TRIPOS>ATOM
      1 O         116.9030  150.6363  146.9020 O.2     1  UNL111     -0.3692
      2 O         114.1395  150.7571  146.8701 O.3     1  UNL111     -0.4394
      3 N         121.4873  153.0484  146.0806 N.4     1  UNL111      0.4267
      4 N         117.1734  152.7944  146.1732 N.am    1  UNL111     -0.2829
      5 C         118.6125  152.5348  145.9851 C.3     1  UNL111      0.0191
      6 C         119.3750  152.6392  147.3141 C.3     1  UNL111     -0.0328
      7 C         119.3143  153.3805  144.9168 C.3     1  UNL111     -0.0328
      8 C         120.8204  152.2043  147.1464 C.3     1  UNL111     -0.0370
      9 C         120.7626  152.9440  144.7538 C.3     1  UNL111     -0.0370
     10 C         122.9673  152.7157  145.9073 C.3     1  UNL111     -0.0358
     11 C         123.7994  153.2169  147.0910 C.3     1  UNL111     -0.0312
     12 C         116.7081  154.1311  146.2123 C.3     1  UNL111     -0.0038
     13 C         116.3844  151.7260  146.6403 C.2     1  UNL111      0.1824
     14 C         125.2686  153.0095  146.8310 C.3     1  UNL111     -0.0753
     15 C         114.8683  151.9747  146.7717 C.3     1  UNL111      0.1005
     16 C         116.4670  154.7540  147.4416 C.3     1  UNL111     -0.0554
     17 C         116.4691  154.8228  145.0220 C.3     1  UNL111     -0.0554
     18 C         125.8807  151.7896  147.1522 C.3     1  UNL111     -0.0811
     19 C         126.0345  154.0200  146.2329 C.3     1  UNL111     -0.0811
     20 C         116.0050  156.0699  147.4772 C.3     1  UNL111     -0.0787
     21 C         116.0054  156.1384  145.0618 C.3     1  UNL111     -0.0787
     22 C         115.7771  156.7616  146.2882 C.3     1  UNL111     -0.0844
     23 C         127.2345  151.5870  146.8811 C.3     1  UNL111     -0.0857
     24 C         127.3880  153.8129  145.9635 C.3     1  UNL111     -0.0857
     25 C         127.9868  152.5972  146.2862 C.3     1  UNL111     -0.0868
     26 C         112.7446  150.9832  147.0180 C.3     1  UNL111      0.0023
     27 H         121.4370  154.0340  146.3763 H       1  UNL111      0.1323
     28 H         118.6922  151.4921  145.6458 H       1  UNL111      0.0865
     29 H         118.9031  152.0140  148.0810 H       1  UNL111      0.0551
     30 H         119.3407  153.6694  147.6909 H       1  UNL111      0.0551
     31 H         119.2910  154.4445  145.1818 H       1  UNL111      0.0551
     32 H         118.8014  153.2732  143.9543 H       1  UNL111      0.0551
     33 H         121.3634  152.3547  148.0830 H       1  UNL111      0.0741
     34 H         120.9014  151.1554  146.8405 H       1  UNL111      0.0741
     35 H         120.8437  151.9060  144.4120 H       1  UNL111      0.0741
     36 H         121.2775  153.6024  144.0462 H       1  UNL111      0.0741
     37 H         123.2943  153.2112  144.9855 H       1  UNL111      0.0751
     38 H         123.0477  151.6314  145.7679 H       1  UNL111      0.0751
     39 H         123.5270  152.6966  148.0160 H       1  UNL111      0.0589
     40 H         123.6046  154.2816  147.2711 H       1  UNL111      0.0589
     41 H         114.6972  152.5652  147.6776 H       1  UNL111      0.1315
     42 H         114.5179  152.5253  145.8922 H       1  UNL111      0.1315
     43 H         116.6367  154.2279  148.3780 H       1  UNL111      0.0993
     44 H         116.6090  154.3406  144.0583 H       1  UNL111      0.0993
     45 H         125.3196  150.9863  147.6249 H       1  UNL111      0.0893
     46 H         125.5952  154.9818  145.9774 H       1  UNL111      0.0893
     47 H         115.8133  156.5565  148.4314 H       1  UNL111      0.0890
     48 H         115.8059  156.6756  144.1369 H       1  UNL111      0.0890
     49 H         115.4069  157.7847  146.3171 H       1  UNL111      0.0876
     50 H         127.7085  150.6423  147.1392 H       1  UNL111      0.0876
     51 H         127.9818  154.6017  145.5065 H       1  UNL111      0.0876
     52 H         129.0434  152.4394  146.0806 H       1  UNL111      0.0874
     53 H         112.2435  150.0138  147.0848 H       1  UNL111      0.0825
     54 H         112.3498  151.5220  146.1513 H       1  UNL111      0.0825
     55 H         112.5428  151.5451  147.9350 H       1  UNL111      0.0825
@<TRIPOS>UNITY_ATOM_ATTR
3 1
charge 1
@<TRIPOS>BOND
     1     1    13    2
     2     2    15    1
     3     2    26    1
     4     3     8    1
     5     3     9    1
     6     3    10    1
     7     4     5    1
     8     4    12    1
     9     4    13   am
    10     5     6    1
    11     5     7    1
    12     6     8    1
    13     7     9    1
    14    10    11    1
    15    11    14    1
    16    12    16   ar
    17    12    17   ar
    18    13    15    1
    19    14    18   ar
    20    14    19   ar
    21    16    20   ar
    22    17    21   ar
    23    18    23   ar
    24    19    24   ar
    25    20    22   ar
    26    21    22   ar
    27    23    25   ar
    28    24    25   ar
    29     3    27    1
    30     5    28    1
    31     6    29    1
    32     6    30    1
    33     7    31    1
    34     7    32    1
    35     8    33    1
    36     8    34    1
    37     9    35    1
    38     9    36    1
    39    10    37    1
    40    10    38    1
    41    11    39    1
    42    11    40    1
    43    15    41    1
    44    15    42    1
    45    16    43    1
    46    17    44    1
    47    18    45    1
    48    19    46    1
    49    20    47    1
    50    21    48    1
    51    22    49    1
    52    23    50    1
    53    24    51    1
    54    25    52    1
    55    26    53    1
    56    26    54    1
    57    26    55    1
@<TRIPOS>MOLECULE
527013
 57 59 0 0 0
SMALL
GASTEIGER

@<TRIPOS>ATOM
      1 O         116.9777  156.0967  145.9061 O.2     1  UNL111     -0.3824
      2 N         121.3954  153.3276  146.7243 N.4     1  UNL111      0.4267
      3 N         117.1192  153.9133  146.5974 N.am    1  UNL111     -0.2907
      4 C         118.5712  154.0725  146.7992 C.3     1  UNL111      0.0176
      5 C         119.1972  153.1746  147.8728 C.3     1  UNL111     -0.0330
      6 C         119.3357  153.9176  145.4764 C.3     1  UNL111     -0.0330
      7 C         120.6743  153.4921  148.0467 C.3     1  UNL111     -0.0370
      8 C         120.8106  154.2301  145.6586 C.3     1  UNL111     -0.0370
      9 C         122.8979  153.5261  146.9047 C.3     1  UNL111     -0.0358
     10 C         123.6866  152.9390  145.7307 C.3     1  UNL111     -0.0312
     11 C         116.5684  152.6089  146.5645 C.3     1  UNL111     -0.0050
     12 C         116.4034  155.0301  146.1395 C.2     1  UNL111      0.1497
     13 C         125.1675  153.0180  145.9948 C.3     1  UNL111     -0.0753
     14 C         114.8976  154.8715  145.9612 C.3     1  UNL111      0.0336
     15 C         116.3446  151.9717  145.3411 C.3     1  UNL111     -0.0546
     16 C         116.2373  151.9621  147.7567 C.3     1  UNL111     -0.0546
     17 C         115.8104  150.6821  145.3132 C.3     1  UNL111     -0.0760
     18 C         115.7022  150.6727  147.7259 C.3     1  UNL111     -0.0760
     19 C         114.2015  156.2064  145.7515 C.3     1  UNL111     -0.0446
     20 C         125.8909  154.1665  145.6436 C.3     1  UNL111     -0.0811
     21 C         125.8343  151.9587  146.6265 C.3     1  UNL111     -0.0811
     22 C         115.4999  150.0169  146.5054 C.3     1  UNL111     -0.0828
     23 C         127.2565  154.2509  145.9177 C.3     1  UNL111     -0.0857
     24 C         127.2000  152.0478  146.8991 C.3     1  UNL111     -0.0857
     25 C         114.8808  148.6494  146.4723 C.3     1  UNL111     -0.0435
     26 C         127.9099  153.1932  146.5461 C.3     1  UNL111     -0.0868
     27 H         121.2583  152.3511  146.4257 H       1  UNL111      0.1323
     28 H         118.7217  155.1063  147.1417 H       1  UNL111      0.0863
     29 H         119.0914  152.1155  147.6080 H       1  UNL111      0.0550
     30 H         118.6866  153.3220  148.8314 H       1  UNL111      0.0550
     31 H         118.9221  154.5858  144.7121 H       1  UNL111      0.0550
     32 H         119.2219  152.8970  145.0897 H       1  UNL111      0.0550
     33 H         120.8379  154.5202  148.3888 H       1  UNL111      0.0741
     34 H         121.1288  152.7941  148.7576 H       1  UNL111      0.0741
     35 H         121.3477  154.0410  144.7256 H       1  UNL111      0.0741
     36 H         120.9756  155.2669  145.9719 H       1  UNL111      0.0741
     37 H         123.1737  153.0119  147.8329 H       1  UNL111      0.0751
     38 H         123.0763  154.5998  147.0346 H       1  UNL111      0.0751
     39 H         123.4639  153.4697  144.7983 H       1  UNL111      0.0589
     40 H         123.3993  151.8936  145.5622 H       1  UNL111      0.0589
     41 H         114.4771  154.3887  146.8496 H       1  UNL111      0.0734
     42 H         114.7077  154.2358  145.0910 H       1  UNL111      0.0734
     43 H         116.5743  152.4697  144.4026 H       1  UNL111      0.0996
     44 H         116.3617  152.4611  148.7140 H       1  UNL111      0.0996
     45 H         115.6265  150.2004  144.3543 H       1  UNL111      0.0905
     46 H         115.4283  150.1853  148.6600 H       1  UNL111      0.0905
     47 H         114.3766  156.8776  146.5988 H       1  UNL111      0.0319
     48 H         113.1219  156.0605  145.6471 H       1  UNL111      0.0319
     49 H         114.5672  156.7041  144.8473 H       1  UNL111      0.0319
     50 H         125.4083  155.0041  145.1446 H       1  UNL111      0.0893
     51 H         125.3069  151.0492  146.9060 H       1  UNL111      0.0893
     52 H         127.8169  155.1399  145.6361 H       1  UNL111      0.0876
     53 H         127.7164  151.2210  147.3822 H       1  UNL111      0.0876
     54 H         115.2260  148.0858  145.5991 H       1  UNL111      0.0395
     55 H         113.7905  148.7334  146.4316 H       1  UNL111      0.0395
     56 H         115.1598  148.0738  147.3612 H       1  UNL111      0.0395
     57 H         128.9757  153.2586  146.7540 H       1  UNL111      0.0874
@<TRIPOS>UNITY_ATOM_ATTR
2 1
charge 1
@<TRIPOS>BOND
     1     1    12    2
     2     2     7    1
     3     2     8    1
     4     2     9    1
     5     3     4    1
     6     3    11    1
     7     3    12   am
     8     4     5    1
     9     4     6    1
    10     5     7    1
    11     6     8    1
    12     9    10    1
    13    10    13    1
    14    11    15   ar
    15    11    16   ar
    16    12    14    1
    17    13    20   ar
    18    13    21   ar
    19    14    19    1
    20    15    17   ar
    21    16    18   ar
    22    17    22   ar
    23    18    22   ar
    24    20    23   ar
    25    21    24   ar
    26    22    25    1
    27    23    26   ar
    28    24    26   ar
    29     2    27    1
    30     4    28    1
    31     5    29    1
    32     5    30    1
    33     6    31    1
    34     6    32    1
    35     7    33    1
    36     7    34    1
    37     8    35    1
    38     8    36    1
    39     9    37    1
    40     9    38    1
    41    10    39    1
    42    10    40    1
    43    14    41    1
    44    14    42    1
    45    15    43    1
    46    16    44    1
    47    17    45    1
    48    18    46    1
    49    19    47    1
    50    19    48    1
    51    19    49    1
    52    20    50    1
    53    21    51    1
    54    23    52    1
    55    24    53    1
    56    25    54    1
    57    25    55    1
    58    25    56    1
    59    26    57    1
@<TRIPOS>MOLECULE
137332271
 55 58 0 0 0
SMALL
GASTEIGER

@<TRIPOS>ATOM
      1 O         118.0685  155.3921  145.7530 O.2     1  UNL111     -0.3806
      2 N         117.2623  153.2940  146.2991 N.am    1  UNL111     -0.2897
      3 N         121.5126  152.9949  146.0980 N.4     1  UNL111      0.4267
      4 C         115.7951  155.3185  146.2946 C.3     1  UNL111      0.0421
      5 C         115.7132  156.5101  147.2280 C.3     1  UNL111     -0.0308
      6 C         115.0769  155.2136  147.6214 C.3     1  UNL111     -0.0308
      7 C         118.6233  152.7134  146.3455 C.3     1  UNL111      0.0177
      8 C         119.4765  153.3303  147.4640 C.3     1  UNL111     -0.0330
      9 C         119.3179  152.7848  144.9750 C.3     1  UNL111     -0.0330
     10 C         117.1210  154.6741  146.0673 C.2     1  UNL111      0.1541
     11 C         120.8941  152.7872  147.4602 C.3     1  UNL111     -0.0370
     12 C         120.7369  152.2515  145.0328 C.3     1  UNL111     -0.0370
     13 C         122.9907  152.6283  146.0527 C.3     1  UNL111     -0.0358
     14 C         116.1554  152.3949  146.3859 C.3     1  UNL111     -0.0052
     15 C         123.8526  153.6857  146.7485 C.3     1  UNL111     -0.0312
     16 C         115.0900  152.4775  145.4803 C.3     1  UNL111     -0.0555
     17 C         116.1324  151.3843  147.3575 C.3     1  UNL111     -0.0555
     18 C         125.3141  153.3429  146.6212 C.3     1  UNL111     -0.0753
     19 C         114.0193  151.5826  145.5547 C.3     1  UNL111     -0.0787
     20 C         115.0596  150.4920  147.4337 C.3     1  UNL111     -0.0787
     21 C         114.0034  150.5921  146.5326 C.3     1  UNL111     -0.0844
     22 C         125.9363  152.5228  147.5732 C.3     1  UNL111     -0.0811
     23 C         126.0614  153.8099  145.5309 C.3     1  UNL111     -0.0811
     24 C         127.2817  152.1789  147.4364 C.3     1  UNL111     -0.0857
     25 C         127.4066  153.4630  145.3979 C.3     1  UNL111     -0.0857
     26 C         128.0155  152.6474  146.3490 C.3     1  UNL111     -0.0868
     27 H         121.4436  153.9994  145.8674 H       1  UNL111      0.1323
     28 H         115.1973  155.4180  145.3940 H       1  UNL111      0.0811
     29 H         115.0648  157.3315  146.9435 H       1  UNL111      0.0406
     30 H         116.6106  156.8200  147.7517 H       1  UNL111      0.0406
     31 H         115.5362  154.6519  148.4266 H       1  UNL111      0.0406
     32 H         113.9944  155.1492  147.6039 H       1  UNL111      0.0406
     33 H         118.5414  151.6426  146.5727 H       1  UNL111      0.0863
     34 H         119.0101  153.1272  148.4358 H       1  UNL111      0.0550
     35 H         119.5278  154.4206  147.3769 H       1  UNL111      0.0550
     36 H         119.3530  153.8090  144.5911 H       1  UNL111      0.0550
     37 H         118.7412  152.2083  144.2411 H       1  UNL111      0.0550
     38 H         121.4993  153.3232  148.1957 H       1  UNL111      0.0741
     39 H         120.9234  151.7143  147.6806 H       1  UNL111      0.0741
     40 H         120.7696  151.1844  145.2793 H       1  UNL111      0.0741
     41 H         121.2413  152.4195  144.0754 H       1  UNL111      0.0741
     42 H         123.2697  152.5610  144.9946 H       1  UNL111      0.0751
     43 H         123.0974  151.6351  146.5041 H       1  UNL111      0.0751
     44 H         123.5995  153.7707  147.8110 H       1  UNL111      0.0589
     45 H         123.6676  154.6753  146.3122 H       1  UNL111      0.0589
     46 H         115.0880  153.2091  144.6771 H       1  UNL111      0.0993
     47 H         116.9188  151.3010  148.1016 H       1  UNL111      0.0993
     48 H         113.1989  151.6553  144.8439 H       1  UNL111      0.0890
     49 H         115.0406  149.7242  148.2039 H       1  UNL111      0.0890
     50 H         113.1667  149.8994  146.5924 H       1  UNL111      0.0876
     51 H         125.3897  152.1501  148.4367 H       1  UNL111      0.0893
     52 H         125.6137  154.4550  144.7779 H       1  UNL111      0.0893
     53 H         127.7641  151.5498  148.1815 H       1  UNL111      0.0876
     54 H         127.9859  153.8337  144.5549 H       1  UNL111      0.0876
     55 H         129.0658  152.3832  146.2468 H       1  UNL111      0.0874
@<TRIPOS>UNITY_ATOM_ATTR
3 1
charge 1
@<TRIPOS>BOND
     1     1    10    2
     2     2     7    1
     3     2    10   am
     4     2    14    1
     5     3    11    1
     6     3    12    1
     7     3    13    1
     8     4     5    1
     9     4     6    1
    10     4    10    1
    11     5     6    1
    12     7     8    1
    13     7     9    1
    14     8    11    1
    15     9    12    1
    16    13    15    1
    17    14    16   ar
    18    14    17   ar
    19    15    18    1
    20    16    19   ar
    21    17    20   ar
    22    18    22   ar
    23    18    23   ar
    24    19    21   ar
    25    20    21   ar
    26    22    24   ar
    27    23    25   ar
    28    24    26   ar
    29    25    26   ar
    30     3    27    1
    31     4    28    1
    32     5    29    1
    33     5    30    1
    34     6    31    1
    35     6    32    1
    36     7    33    1
    37     8    34    1
    38     8    35    1
    39     9    36    1
    40     9    37    1
    41    11    38    1
    42    11    39    1
    43    12    40    1
    44    12    41    1
    45    13    42    1
    46    13    43    1
    47    15    44    1
    48    15    45    1
    49    16    46    1
    50    17    47    1
    51    19    48    1
    52    20    49    1
    53    21    50    1
    54    22    51    1
    55    23    52    1
    56    24    53    1
    57    25    54    1
    58    26    55    1
@<TRIPOS>MOLECULE
137700511
 59 62 0 0 0
SMALL
GASTEIGER

@<TRIPOS>ATOM
      1 O         118.7726  155.2230  145.8699 O.2     1  UNL111     -0.3466
      2 O         115.8441  154.5410  147.7286 O.2     1  UNL111     -0.5186
      3 O         113.8446  151.2868  144.9553 O.2     1  UNL111     -0.5823
      4 N         122.3579  152.9920  146.1456 N.4     1  UNL111      0.4267
      5 N         118.1054  153.1455  146.5918 N.am    1  UNL111     -0.2668
      6 C         119.4979  152.6387  146.5766 C.3     1  UNL111      0.0220
      7 C         120.1070  152.6606  145.1650 C.3     1  UNL111     -0.0324
      8 C         120.3887  153.3576  147.6011 C.3     1  UNL111     -0.0324
      9 C         121.5442  152.1715  145.1677 C.3     1  UNL111     -0.0370
     10 C         121.8202  152.8539  147.5512 C.3     1  UNL111     -0.0370
     11 C         123.8400  152.6493  146.0431 C.3     1  UNL111     -0.0358
     12 C         124.7146  153.7656  146.6214 C.3     1  UNL111     -0.0312
     13 C         117.0525  152.1705  146.6288 C.3     1  UNL111      0.0153
     14 C         117.8740  154.5249  146.3512 C.2     1  UNL111      0.2419
     15 C         126.1745  153.4292  146.4641 C.3     1  UNL111     -0.0753
     16 C         115.9619  152.2595  145.7460 C.3     1  UNL111      0.0001
     17 C         117.1138  151.0876  147.5168 C.3     1  UNL111     -0.0494
     18 C         116.6089  155.1222  146.7521 C.3     1  UNL111      0.1551
     19 C         114.9475  151.2985  145.7636 C.3     1  UNL111      0.0408
     20 C         126.8439  152.6964  147.4546 C.3     1  UNL111     -0.0811
     21 C         126.8731  153.8136  145.3112 C.3     1  UNL111     -0.0811
     22 C         116.1106  150.1179  147.5255 C.3     1  UNL111     -0.0625
     23 C         115.0355  150.2231  146.6469 C.3     1  UNL111     -0.0290
     24 C         116.0134  156.3081  146.3590 C.3     1  UNL111      0.0123
     25 C         128.1880  152.3575  147.2940 C.3     1  UNL111     -0.0857
     26 C         128.2171  153.4721  145.1546 C.3     1  UNL111     -0.0857
     27 C         114.8109  156.4289  147.0961 C.3     1  UNL111     -0.0179
     28 C         128.8732  152.7438  146.1445 C.3     1  UNL111     -0.0868
     29 C         114.7540  155.3272  147.9148 C.3     1  UNL111      0.0348
     30 C         113.5305  152.5010  144.2829 C.3     1  UNL111      0.0295
     31 H         122.2568  153.9794  145.8611 H       1  UNL111      0.1323
     32 H         119.4920  151.5830  146.8736 H       1  UNL111      0.0870
     33 H         120.0865  153.6645  144.7298 H       1  UNL111      0.0551
     34 H         119.5092  152.0292  144.4962 H       1  UNL111      0.0551
     35 H         119.9835  153.2068  148.6092 H       1  UNL111      0.0551
     36 H         120.3999  154.4402  147.4374 H       1  UNL111      0.0551
     37 H         121.6235  151.1206  145.4676 H       1  UNL111      0.0741
     38 H         121.9882  152.3017  144.1751 H       1  UNL111      0.0741
     39 H         122.4478  153.4513  148.2173 H       1  UNL111      0.0741
     40 H         121.8938  151.7980  147.8346 H       1  UNL111      0.0741
     41 H         124.0642  152.5181  144.9779 H       1  UNL111      0.0751
     42 H         123.9914  151.6897  146.5508 H       1  UNL111      0.0751
     43 H         124.5019  153.9306  147.6833 H       1  UNL111      0.0589
     44 H         124.4995  154.7166  146.1180 H       1  UNL111      0.0589
     45 H         115.9233  153.0666  145.0233 H       1  UNL111      0.1225
     46 H         117.9098  151.0020  148.2503 H       1  UNL111      0.1001
     47 H         126.3360  152.3894  148.3662 H       1  UNL111      0.0893
     48 H         126.3881  154.3903  144.5263 H       1  UNL111      0.0893
     49 H         116.1541  149.2882  148.2268 H       1  UNL111      0.0925
     50 H         114.2501  149.4702  146.6591 H       1  UNL111      0.1105
     51 H         116.4076  156.9984  145.6251 H       1  UNL111      0.1194
     52 H         128.7071  151.7967  148.0684 H       1  UNL111      0.0876
     53 H         128.7589  153.7791  144.2626 H       1  UNL111      0.0876
     54 H         114.0812  157.2257  147.0471 H       1  UNL111      0.1107
     55 H         129.9226  152.4840  146.0234 H       1  UNL111      0.0874
     56 H         114.0457  154.9787  148.6547 H       1  UNL111      0.1750
     57 H         112.5472  152.3810  143.8182 H       1  UNL111      0.1069
     58 H         114.2536  152.7022  143.4861 H       1  UNL111      0.1069
     59 H         113.4693  153.3420  144.9821 H       1  UNL111      0.1069
@<TRIPOS>UNITY_ATOM_ATTR
4 1
charge 1
@<TRIPOS>BOND
     1     1    14    2
     2     2    18   ar
     3     2    29   ar
     4     3    19    1
     5     3    30    1
     6     4     9    1
     7     4    10    1
     8     4    11    1
     9     5     6    1
    10     5    13    1
    11     5    14   am
    12     6     7    1
    13     6     8    1
    14     7     9    1
    15     8    10    1
    16    11    12    1
    17    12    15    1
    18    13    16   ar
    19    13    17   ar
    20    14    18    1
    21    15    20   ar
    22    15    21   ar
    23    16    19   ar
    24    17    22   ar
    25    18    24   ar
    26    19    23   ar
    27    20    25   ar
    28    21    26   ar
    29    22    23   ar
    30    24    27   ar
    31    25    28   ar
    32    26    28   ar
    33    27    29   ar
    34     4    31    1
    35     6    32    1
    36     7    33    1
    37     7    34    1
    38     8    35    1
    39     8    36    1
    40     9    37    1
    41     9    38    1
    42    10    39    1
    43    10    40    1
    44    11    41    1
    45    11    42    1
    46    12    43    1
    47    12    44    1
    48    16    45    1
    49    17    46    1
    50    20    47    1
    51    21    48    1
    52    22    49    1
    53    23    50    1
    54    24    51    1
    55    25    52    1
    56    26    53    1
    57    27    54    1
    58    28    55    1
    59    29    56    1
    60    30    57    1
    61    30    58    1
    62    30    59    1
@<TRIPOS>MOLECULE
89982
 30 31 0 0 0
SMALL
GASTEIGER

@<TRIPOS>ATOM
      1 N         123.4009  153.1693  147.2566 N.4     1  UNL111      0.4315
      2 N         120.1159  152.4339  146.0308 N.pl3   1  UNL111     -0.4102
      3 C         121.1180  153.3212  145.4504 C.3     1  UNL111     -0.0003
      4 C         122.3777  152.5109  145.1091 C.3     1  UNL111     -0.0361
      5 C         121.4832  154.4543  146.4207 C.3     1  UNL111     -0.0361
      6 C         123.1073  152.0217  146.3514 C.3     1  UNL111     -0.0341
      7 C         122.1807  153.9308  147.6625 C.3     1  UNL111     -0.0341
      8 C         118.7805  152.7757  146.2279 C.ar    1  UNL111     -0.0247
      9 C         117.9650  151.8747  146.9304 C.ar    1  UNL111     -0.0592
     10 C         118.2109  153.9913  145.8356 C.ar    1  UNL111     -0.0592
     11 C         116.6259  152.1646  147.2085 C.ar    1  UNL111     -0.0792
     12 C         116.8704  154.2871  146.1102 C.ar    1  UNL111     -0.0792
     13 C         116.0774  153.3730  146.7956 C.ar    1  UNL111     -0.0845
     14 H         124.0821  153.8047  146.8187 H       1  UNL111      0.1345
     15 H         123.8615  152.8144  148.1064 H       1  UNL111      0.1345
     16 H         120.2268  151.4297  145.8953 H       1  UNL111      0.1809
     17 H         120.7329  153.7441  144.5146 H       1  UNL111      0.0813
     18 H         123.0570  153.1406  144.5200 H       1  UNL111      0.0543
     19 H         122.1193  151.6515  144.4787 H       1  UNL111      0.0543
     20 H         120.6025  155.0260  146.7283 H       1  UNL111      0.0543
     21 H         122.1448  155.1633  145.9057 H       1  UNL111      0.0543
     22 H         122.5182  151.2976  146.9238 H       1  UNL111      0.0736
     23 H         124.0691  151.5682  146.0933 H       1  UNL111      0.0736
     24 H         122.5219  154.7506  148.3017 H       1  UNL111      0.0736
     25 H         121.5524  153.2569  148.2539 H       1  UNL111      0.0736
     26 H         118.3658  150.9246  147.2759 H       1  UNL111      0.0987
     27 H         118.7788  154.7309  145.2810 H       1  UNL111      0.0987
     28 H         116.0126  151.4456  147.7462 H       1  UNL111      0.0890
     29 H         116.4436  155.2318  145.7806 H       1  UNL111      0.0890
     30 H         115.0352  153.6010  147.0048 H       1  UNL111      0.0876
@<TRIPOS>UNITY_ATOM_ATTR
1 1
charge 1
@<TRIPOS>BOND
     1     1     6    1
     2     1     7    1
     3     2     3    1
     4     2     8    1
     5     3     4    1
     6     3     5    1
     7     4     6    1
     8     5     7    1
     9     8     9   ar
    10     8    10   ar
    11     9    11   ar
    12    10    12   ar
    13    11    13   ar
    14    12    13   ar
    15     1    14    1
    16     1    15    1
    17     2    16    1
    18     3    17    1
    19     4    18    1
    20     4    19    1
    21     5    20    1
    22     5    21    1
    23     6    22    1
    24     6    23    1
    25     7    24    1
    26     7    25    1
    27     9    26    1
    28    10    27    1
    29    11    28    1
    30    12    29    1
    31    13    30    1
@<TRIPOS>MOLECULE
10044685
 55 58 0 0 0
SMALL
GASTEIGER

@<TRIPOS>ATOM
      1 O         117.6759  155.7267  145.8204 O.2     1  UNL111     -0.3655
      2 N         122.6351  153.9255  147.2934 N.4     1  UNL111      0.4292
      3 N         118.3952  153.6919  146.6653 N.am    1  UNL111     -0.2809
      4 C         119.7714  154.1873  146.8480 C.3     1  UNL111      0.0197
      5 C         120.7185  153.6969  145.7452 C.3     1  UNL111     -0.0324
      6 C         120.3492  153.8896  148.2361 C.3     1  UNL111     -0.0324
      7 C         122.1137  154.2712  145.9166 C.3     1  UNL111     -0.0355
      8 C         121.7455  154.4734  148.3808 C.3     1  UNL111     -0.0355
      9 C         124.0816  154.3410  147.4941 C.3     1  UNL111     -0.0146
     10 C         118.1509  152.2989  146.7766 C.3     1  UNL111     -0.0031
     11 C         117.4312  154.5646  146.1338 C.2     1  UNL111      0.1918
     12 C         125.0362  153.5487  146.6426 C.3     1  UNL111     -0.0704
     13 C         118.2087  151.4845  145.6400 C.3     1  UNL111     -0.0552
     14 C         117.8310  151.7449  148.0177 C.3     1  UNL111     -0.0552
     15 C         116.0512  154.0635  145.9587 C.3     1  UNL111      0.0431
     16 C         125.3795  152.2328  146.9920 C.3     1  UNL111     -0.0746
     17 C         125.5596  154.0965  145.4610 C.3     1  UNL111     -0.0746
     18 C         117.9729  150.1148  145.7514 C.3     1  UNL111     -0.0787
     19 C         117.5860  150.3756  148.1234 C.3     1  UNL111     -0.0787
     20 C         115.2004  153.9629  147.0638 C.3     1  UNL111     -0.0495
     21 C         115.6164  153.6964  144.6829 C.3     1  UNL111     -0.0495
     22 C         126.2204  151.4810  146.1699 C.3     1  UNL111     -0.0834
     23 C         126.3944  153.3384  144.6395 C.3     1  UNL111     -0.0834
     24 C         117.6633  149.5615  146.9930 C.3     1  UNL111     -0.0844
     25 C         126.7219  152.0317  144.9927 C.3     1  UNL111     -0.0861
     26 C         113.9130  153.4546  146.8918 C.3     1  UNL111     -0.0799
     27 C         114.3308  153.1817  144.5205 C.3     1  UNL111     -0.0799
     28 C         113.4835  153.0573  145.6237 C.3     1  UNL111     -0.0854
     29 H         122.6371  152.8990  147.3688 H       1  UNL111      0.1349
     30 H         119.7379  155.2818  146.7632 H       1  UNL111      0.0867
     31 H         120.3276  153.9768  144.7596 H       1  UNL111      0.0551
     32 H         120.7891  152.6024  145.7567 H       1  UNL111      0.0551
     33 H         120.3991  152.8093  148.4149 H       1  UNL111      0.0551
     34 H         119.6957  154.3112  149.0092 H       1  UNL111      0.0551
     35 H         122.7817  153.8256  145.1749 H       1  UNL111      0.0744
     36 H         122.1285  155.3619  145.8168 H       1  UNL111      0.0744
     37 H         121.7479  155.5659  148.2952 H       1  UNL111      0.0744
     38 H         122.1795  154.1828  149.3430 H       1  UNL111      0.0744
     39 H         124.3235  154.1772  148.5513 H       1  UNL111      0.0876
     40 H         124.1470  155.4172  147.2966 H       1  UNL111      0.0876
     41 H         118.4300  151.9066  144.6633 H       1  UNL111      0.0993
     42 H         117.7406  152.3729  148.8993 H       1  UNL111      0.0993
     43 H         125.0115  151.7772  147.9095 H       1  UNL111      0.0924
     44 H         125.3241  155.1160  145.1603 H       1  UNL111      0.0924
     45 H         118.0142  149.4798  144.8693 H       1  UNL111      0.0890
     46 H         117.3163  149.9421  149.0837 H       1  UNL111      0.0890
     47 H         115.5316  154.2759  148.0495 H       1  UNL111      0.0967
     48 H         116.2739  153.7989  143.8247 H       1  UNL111      0.0967
     49 H         126.4929  150.4639  146.4461 H       1  UNL111      0.0880
     50 H         126.7957  153.7657  143.7224 H       1  UNL111      0.0880
     51 H         117.4621  148.4954  147.0763 H       1  UNL111      0.0876
     52 H         127.3776  151.4440  144.3529 H       1  UNL111      0.0874
     53 H         113.2410  153.3674  147.7423 H       1  UNL111      0.0884
     54 H         113.9853  152.8778  143.5353 H       1  UNL111      0.0884
     55 H         112.4806  152.6561  145.4929 H       1  UNL111      0.0875
@<TRIPOS>UNITY_ATOM_ATTR
2 1
charge 1
@<TRIPOS>BOND
     1     1    11    2
     2     2     7    1
     3     2     8    1
     4     2     9    1
     5     3     4    1
     6     3    10    1
     7     3    11   am
     8     4     5    1
     9     4     6    1
    10     5     7    1
    11     6     8    1
    12     9    12    1
    13    10    13   ar
    14    10    14   ar
    15    11    15    1
    16    12    16   ar
    17    12    17   ar
    18    13    18   ar
    19    14    19   ar
    20    15    20   ar
    21    15    21   ar
    22    16    22   ar
    23    17    23   ar
    24    18    24   ar
    25    19    24   ar
    26    20    26   ar
    27    21    27   ar
    28    22    25   ar
    29    23    25   ar
    30    26    28   ar
    31    27    28   ar
    32     2    29    1
    33     4    30    1
    34     5    31    1
    35     5    32    1
    36     6    33    1
    37     6    34    1
    38     7    35    1
    39     7    36    1
    40     8    37    1
    41     8    38    1
    42     9    39    1
    43     9    40    1
    44    13    41    1
    45    14    42    1
    46    16    43    1
    47    17    44    1
    48    18    45    1
    49    19    46    1
    50    20    47    1
    51    21    48    1
    52    22    49    1
    53    23    50    1
    54    24    51    1
    55    25    52    1
    56    26    53    1
    57    27    54    1
    58    28    55    1
@<TRIPOS>MOLECULE
137700013
 35 37 0 0 0
SMALL
GASTEIGER

@<TRIPOS>ATOM
      1 F         114.0415  149.4774  146.6631 F       1  UNL111     -0.2792
      2 O         117.4713  156.1534  147.2667 O.2     1  UNL111     -0.3805
      3 N         121.9648  153.6225  148.0476 N.4     1  UNL111      0.4556
      4 N         117.4395  153.9056  146.6987 N.am    1  UNL111     -0.2590
      5 C         118.8121  153.7530  146.8845 C.3     1  UNL111      0.1086
      6 C         119.7850  154.8173  146.8377 C.3     1  UNL111      0.0831
      7 C         119.4576  152.5909  147.4450 C.3     1  UNL111      0.0831
      8 C         121.2255  154.7309  147.3892 C.3     1  UNL111      0.0648
      9 C         120.9113  152.5749  147.9808 C.3     1  UNL111      0.0648
     10 C         123.1857  153.2544  147.3615 C.3     1  UNL111      0.0661
     11 C         116.9277  155.2225  146.6611 C.2     1  UNL111      0.1567
     12 C         124.4871  152.8587  146.6576 C.3     1  UNL111      0.0776
     13 C         116.5526  152.7694  146.6585 C.2     1  UNL111      0.0453
     14 C         115.7625  155.5172  145.7053 C.3     1  UNL111      0.0363
     15 C         125.7043  152.4860  146.0162 C.2     1  UNL111     -0.0058
     16 C         117.0116  151.5086  146.2588 C.2     1  UNL111      0.0379
     17 C         115.2213  152.8758  147.0782 C.2     1  UNL111      0.0379
     18 C         116.2935  156.3618  144.5450 C.3     1  UNL111     -0.0428
     19 C         114.6538  156.2610  146.4446 C.3     1  UNL111     -0.0428
     20 C         116.1713  150.3970  146.2520 C.2     1  UNL111      0.0655
     21 C         114.3672  151.7746  147.0782 C.2     1  UNL111      0.0655
     22 C         126.4095  151.3711  146.4631 C.2     1  UNL111     -0.0052
     23 C         126.1875  153.2402  144.9499 C.2     1  UNL111     -0.0052
     24 C         114.8526  150.5422  146.6621 C.2     1  UNL111      0.1273
     25 C         127.6021  151.0092  145.8408 C.2     1  UNL111     -0.0019
     26 C         127.3802  152.8772  144.3284 C.2     1  UNL111     -0.0019
     27 C         128.0871  151.7624  144.7740 C.2     1  UNL111     -0.0007
     28 H         122.1526  153.8693  149.0272 H       1  UNL111      0.1720
     29 H         115.3563  154.6064  145.2613 H       1  UNL111      0.0783
     30 H         116.6988  157.3180  144.8943 H       1  UNL111      0.0331
     31 H         115.4978  156.5741  143.8232 H       1  UNL111      0.0331
     32 H         117.0976  155.8353  144.0194 H       1  UNL111      0.0331
     33 H         115.0021  157.2277  146.8252 H       1  UNL111      0.0331
     34 H         114.2957  155.6828  147.3025 H       1  UNL111      0.0331
     35 H         113.8026  156.4469  145.7814 H       1  UNL111      0.0331
@<TRIPOS>UNITY_ATOM_ATTR
3 1
charge 1
@<TRIPOS>BOND
     1     1    24    1
     2     2    11    2
     3     3     8    1
     4     3     9    1
     5     3    10    1
     6     4     5    1
     7     4    11   am
     8     4    13    1
     9     5     6    1
    10     5     7    1
    11     6     8    1
    12     7     9    1
    13    10    12    1
    14    11    14    1
    15    12    15    1
    16    13    16    2
    17    13    17    1
    18    14    18    1
    19    14    19    1
    20    15    22    2
    21    15    23    1
    22    16    20    1
    23    17    21    2
    24    20    24    2
    25    21    24    1
    26    22    25    1
    27    23    26    2
    28    25    27    2
    29    26    27    1
    30     3    28    1
    31    14    29    1
    32    18    30    1
    33    18    31    1
    34    18    32    1
    35    19    33    1
    36    19    34    1
    37    19    35    1
@<TRIPOS>MOLECULE
137700051
 58 60 0 0 0
SMALL
GASTEIGER

@<TRIPOS>ATOM
      1 O         118.1359  155.3667  146.2115 O.2     1  UNL111     -0.3692
      2 O         115.6567  156.4714  146.6403 O.3     1  UNL111     -0.4394
      3 N         121.6860  153.0565  146.1360 N.4     1  UNL111      0.4267
      4 N         117.4314  153.1939  146.3873 N.am    1  UNL111     -0.2819
      5 C         118.8042  152.6508  146.3303 C.3     1  UNL111      0.0193
      6 C         119.4920  152.9710  144.9941 C.3     1  UNL111     -0.0328
      7 C         119.6468  153.0983  147.5347 C.3     1  UNL111     -0.0328
      8 C         120.9275  152.4811  144.9617 C.3     1  UNL111     -0.0370
      9 C         121.0786  152.6045  147.4423 C.3     1  UNL111     -0.0370
     10 C         123.1732  152.7434  146.0327 C.3     1  UNL111     -0.0358
     11 C         124.0093  153.7002  146.8874 C.3     1  UNL111     -0.0312
     12 C         116.3822  152.2526  146.5254 C.3     1  UNL111     -0.0011
     13 C         117.1979  154.5767  146.3598 C.2     1  UNL111      0.1826
     14 C         115.6155  151.8415  145.4207 C.3     1  UNL111     -0.0540
     15 C         125.4775  153.4012  146.7296 C.3     1  UNL111     -0.0753
     16 C         116.1388  151.7178  147.7980 C.3     1  UNL111     -0.0544
     17 C         115.7432  155.0537  146.5524 C.3     1  UNL111      0.1005
     18 C         114.6093  150.8837  145.6257 C.3     1  UNL111     -0.0760
     19 C         115.8804  152.3086  144.0163 C.3     1  UNL111     -0.0363
     20 C         115.1254  150.7797  147.9828 C.3     1  UNL111     -0.0783
     21 C         126.1073  152.4745  147.5727 C.3     1  UNL111     -0.0811
     22 C         126.2238  154.0171  145.7153 C.3     1  UNL111     -0.0811
     23 C         114.3615  150.3631  146.8970 C.3     1  UNL111     -0.0834
     24 C         127.4591  152.1722  147.4038 C.3     1  UNL111     -0.0857
     25 C         127.5753  153.7112  145.5496 C.3     1  UNL111     -0.0857
     26 C         128.1917  152.7889  146.3922 C.3     1  UNL111     -0.0868
     27 C         114.3150  156.9105  146.8042 C.3     1  UNL111      0.0023
     28 H         121.5876  154.0834  146.0786 H       1  UNL111      0.1323
     29 H         118.7295  151.5545  146.3855 H       1  UNL111      0.0865
     30 H         119.4918  154.0465  144.7896 H       1  UNL111      0.0551
     31 H         118.9345  152.5087  144.1712 H       1  UNL111      0.0551
     32 H         119.1940  152.7259  148.4614 H       1  UNL111      0.0551
     33 H         119.6651  154.1894  147.6267 H       1  UNL111      0.0551
     34 H         120.9937  151.3892  145.0235 H       1  UNL111      0.0741
     35 H         121.4212  152.8242  144.0463 H       1  UNL111      0.0741
     36 H         121.6708  153.0257  148.2586 H       1  UNL111      0.0741
     37 H         121.1388  151.5110  147.4788 H       1  UNL111      0.0741
     38 H         123.4499  152.8527  144.9775 H       1  UNL111      0.0751
     39 H         123.3090  151.6943  146.3201 H       1  UNL111      0.0751
     40 H         123.7436  153.6252  147.9475 H       1  UNL111      0.0589
     41 H         123.8124  154.7402  146.5981 H       1  UNL111      0.0589
     42 H         116.7199  152.0407  148.6577 H       1  UNL111      0.0996
     43 H         115.1485  154.7150  145.6986 H       1  UNL111      0.1315
     44 H         115.3514  154.6194  147.4783 H       1  UNL111      0.1315
     45 H         114.0072  150.5303  144.7894 H       1  UNL111      0.0905
     46 H         116.2413  153.3400  143.9859 H       1  UNL111      0.0411
     47 H         114.9639  152.2794  143.4169 H       1  UNL111      0.0411
     48 H         116.6249  151.6596  143.5449 H       1  UNL111      0.0411
     49 H         114.9274  150.3740  148.9724 H       1  UNL111      0.0891
     50 H         125.5615  151.9845  148.3760 H       1  UNL111      0.0893
     51 H         125.7701  154.7474  145.0486 H       1  UNL111      0.0893
     52 H         113.5717  149.6278  147.0374 H       1  UNL111      0.0879
     53 H         127.9470  151.4596  148.0653 H       1  UNL111      0.0876
     54 H         128.1536  154.1969  144.7665 H       1  UNL111      0.0876
     55 H         129.2468  152.5565  146.2654 H       1  UNL111      0.0874
     56 H         114.3147  158.0020  146.8660 H       1  UNL111      0.0825
     57 H         113.8904  156.5078  147.7289 H       1  UNL111      0.0825
     58 H         113.7055  156.6086  145.9470 H       1  UNL111      0.0825
@<TRIPOS>UNITY_ATOM_ATTR
3 1
charge 1
@<TRIPOS>BOND
     1     1    13    2
     2     2    17    1
     3     2    27    1
     4     3     8    1
     5     3     9    1
     6     3    10    1
     7     4     5    1
     8     4    12    1
     9     4    13   am
    10     5     6    1
    11     5     7    1
    12     6     8    1
    13     7     9    1
    14    10    11    1
    15    11    15    1
    16    12    14   ar
    17    12    16   ar
    18    13    17    1
    19    14    18   ar
    20    14    19    1
    21    15    21   ar
    22    15    22   ar
    23    16    20   ar
    24    18    23   ar
    25    20    23   ar
    26    21    24   ar
    27    22    25   ar
    28    24    26   ar
    29    25    26   ar
    30     3    28    1
    31     5    29    1
    32     6    30    1
    33     6    31    1
    34     7    32    1
    35     7    33    1
    36     8    34    1
    37     8    35    1
    38     9    36    1
    39     9    37    1
    40    10    38    1
    41    10    39    1
    42    11    40    1
    43    11    41    1
    44    16    42    1
    45    17    43    1
    46    17    44    1
    47    18    45    1
    48    19    46    1
    49    19    47    1
    50    19    48    1
    51    20    49    1
    52    21    50    1
    53    22    51    1
    54    23    52    1
    55    24    53    1
    56    25    54    1
    57    26    55    1
    58    27    56    1
    59    27    57    1
    60    27    58    1
@<TRIPOS>MOLECULE
71749220
 39 40 0 0 0
SMALL
GASTEIGER

@<TRIPOS>ATOM
      1 O         118.6440  154.8957  147.3588 O.2     1  UNL111     -0.3802
      2 O         120.0630  156.8352  145.0554 O.3     1  UNL111     -0.4539
      3 N         119.9007  153.1680  146.5057 N.am    1  UNL111     -0.2893
      4 N         115.8449  151.9800  146.3668 N.4     1  UNL111      0.4316
      5 C         118.7001  152.3328  146.2742 C.3     1  UNL111      0.0176
      6 C         117.7734  152.9492  145.2086 C.3     1  UNL111     -0.0330
      7 C         117.9663  152.0087  147.5911 C.3     1  UNL111     -0.0330
      8 C         116.4974  152.1489  145.0376 C.3     1  UNL111     -0.0336
      9 C         116.6853  151.2355  147.3471 C.3     1  UNL111     -0.0336
     10 C         121.1745  152.5322  146.3931 C.3     1  UNL111     -0.0052
     11 C         119.7344  154.4936  146.9381 C.2     1  UNL111      0.1585
     12 C         120.9203  155.4418  146.8185 C.3     1  UNL111      0.0587
     13 C         122.1338  152.6735  147.4046 C.3     1  UNL111     -0.0555
     14 C         121.4728  151.7204  145.2906 C.3     1  UNL111     -0.0555
     15 C         120.4617  156.8382  146.4240 C.3     1  UNL111      0.0227
     16 C         123.3698  152.0295  147.3079 C.3     1  UNL111     -0.0787
     17 C         122.7110  151.0802  145.1930 C.3     1  UNL111     -0.0787
     18 C         123.6585  151.2351  146.2015 C.3     1  UNL111     -0.0844
     19 H         119.8671  157.7600  144.8192 H       1  UNL111      0.2339
     20 H         114.9432  151.4975  146.2494 H       1  UNL111      0.1345
     21 H         115.6125  152.9095  146.7531 H       1  UNL111      0.1345
     22 H         119.0184  151.3608  145.8753 H       1  UNL111      0.0863
     23 H         118.3026  153.0067  144.2497 H       1  UNL111      0.0549
     24 H         117.4994  153.9784  145.4629 H       1  UNL111      0.0549
     25 H         117.7151  152.9159  148.1489 H       1  UNL111      0.0549
     26 H         118.6266  151.4275  148.2464 H       1  UNL111      0.0549
     27 H         115.7819  152.6681  144.3931 H       1  UNL111      0.0737
     28 H         116.6851  151.1489  144.6329 H       1  UNL111      0.0737
     29 H         116.8730  150.2398  146.9319 H       1  UNL111      0.0737
     30 H         116.0962  151.1364  148.2637 H       1  UNL111      0.0737
     31 H         121.6278  155.0827  146.0654 H       1  UNL111      0.0863
     32 H         121.4133  155.4848  147.7947 H       1  UNL111      0.0863
     33 H         121.9264  153.2533  148.3000 H       1  UNL111      0.0993
     34 H         120.7732  151.6109  144.4672 H       1  UNL111      0.0993
     35 H         119.6261  157.1949  147.0338 H       1  UNL111      0.0924
     36 H         121.2944  157.5416  146.5279 H       1  UNL111      0.0924
     37 H         124.1071  152.1436  148.0996 H       1  UNL111      0.0890
     38 H         122.9434  150.4694  144.3235 H       1  UNL111      0.0890
     39 H         124.6237  150.7392  146.1242 H       1  UNL111      0.0876
@<TRIPOS>UNITY_ATOM_ATTR
4 1
charge 1
@<TRIPOS>BOND
     1     1    11    2
     2     2    15    1
     3     3     5    1
     4     3    10    1
     5     3    11   am
     6     4     8    1
     7     4     9    1
     8     5     6    1
     9     5     7    1
    10     6     8    1
    11     7     9    1
    12    10    13   ar
    13    10    14   ar
    14    11    12    1
    15    12    15    1
    16    13    16   ar
    17    14    17   ar
    18    16    18   ar
    19    17    18   ar
    20     2    19    1
    21     4    20    1
    22     4    21    1
    23     5    22    1
    24     6    23    1
    25     6    24    1
    26     7    25    1
    27     7    26    1
    28     8    27    1
    29     8    28    1
    30     9    29    1
    31     9    30    1
    32    12    31    1
    33    12    32    1
    34    13    33    1
    35    14    34    1
    36    15    35    1
    37    15    36    1
    38    16    37    1
    39    17    38    1
    40    18    39    1
@<TRIPOS>MOLECULE
137699864
 32 34 0 0 0
SMALL
GASTEIGER

@<TRIPOS>ATOM
      1 O         117.2767  156.1649  146.1473 O.2     1  UNL111     -0.3751
      2 N         121.6289  153.3753  144.6412 N.4     1  UNL111      0.4556
      3 N         117.2117  153.8312  146.2938 N.am    1  UNL111     -0.2643
      4 C         118.5544  153.6712  145.9731 C.3     1  UNL111      0.1077
      5 C         119.1457  152.4527  145.4735 C.3     1  UNL111      0.0830
      6 C         119.5285  154.7236  145.8358 C.3     1  UNL111      0.0830
      7 C         120.5660  152.3584  144.8613 C.3     1  UNL111      0.0648
      8 C         120.9338  154.5582  145.2136 C.3     1  UNL111      0.0648
      9 C         122.8708  153.0618  145.3183 C.3     1  UNL111      0.0661
     10 C         124.1881  152.7311  146.0258 C.3     1  UNL111      0.0776
     11 C         116.3519  152.6889  146.4442 C.3     1  UNL111     -0.0002
     12 C         116.6860  155.1357  146.4602 C.2     1  UNL111      0.1817
     13 C         115.4006  155.3055  147.0921 C.3     1  UNL111      0.1385
     14 C         125.4167  152.4244  146.6801 C.2     1  UNL111     -0.0058
     15 C         116.7401  151.6049  147.2465 C.3     1  UNL111     -0.0549
     16 C         115.1202  152.6274  145.7742 C.3     1  UNL111     -0.0549
     17 C         114.0462  155.4900  147.7658 C.3     1  UNL111      0.0433
     18 C         125.4047  151.9070  147.9730 C.2     1  UNL111     -0.0052
     19 C         126.6254  152.6426  146.0233 C.2     1  UNL111     -0.0052
     20 C         115.9055  150.4940  147.3896 C.3     1  UNL111     -0.0786
     21 C         114.2899  151.5136  145.9177 C.3     1  UNL111     -0.0786
     22 C         112.6805  155.6458  148.4342 C.3     1  UNL111      0.0091
     23 C         114.6818  150.4498  146.7263 C.3     1  UNL111     -0.0844
     24 C         126.6061  151.6069  148.6109 C.2     1  UNL111     -0.0019
     25 C         127.8261  152.3421  146.6623 C.2     1  UNL111     -0.0019
     26 C         127.8161  151.8245  147.9556 C.2     1  UNL111     -0.0007
     27 H         121.7821  153.5145  143.6349 H       1  UNL111      0.1720
     28 H         117.6704  151.6229  147.8085 H       1  UNL111      0.0994
     29 H         114.7963  153.4224  145.1057 H       1  UNL111      0.0994
     30 H         116.2014  149.6655  148.0299 H       1  UNL111      0.0890
     31 H         113.3354  151.4729  145.3962 H       1  UNL111      0.0890
     32 H         114.0293  149.5865  146.8425 H       1  UNL111      0.0876
@<TRIPOS>UNITY_ATOM_ATTR
2 1
charge 1
@<TRIPOS>BOND
     1     1    12    2
     2     2     7    1
     3     2     8    1
     4     2     9    1
     5     3     4    1
     6     3    11    1
     7     3    12   am
     8     4     5    1
     9     4     6    1
    10     5     7    1
    11     6     8    1
    12     9    10    1
    13    10    14    1
    14    11    15   ar
    15    11    16   ar
    16    12    13    1
    17    13    17    1
    18    14    18    2
    19    14    19    1
    20    15    20   ar
    21    16    21   ar
    22    17    22    1
    23    18    24    1
    24    19    25    2
    25    20    23   ar
    26    21    23   ar
    27    24    26    2
    28    25    26    1
    29     2    27    1
    30    15    28    1
    31    16    29    1
    32    20    30    1
    33    21    31    1
    34    23    32    1
@<TRIPOS>MOLECULE
527022
 38 39 0 0 0
SMALL
GASTEIGER

@<TRIPOS>ATOM
      1 O         119.7209  150.0039  146.8103 O.2     1  UNL111     -0.3837
      2 N         123.2943  153.8408  146.1847 N.4     1  UNL111      0.4253
      3 N         119.3088  152.2511  146.5809 N.am    1  UNL111     -0.2915
      4 C         120.7495  152.5377  146.6906 C.3     1  UNL111      0.0174
      5 C         121.1050  153.8823  147.3425 C.3     1  UNL111     -0.0332
      6 C         121.4769  152.3792  145.3497 C.3     1  UNL111     -0.0332
      7 C         122.6100  154.0070  147.5208 C.3     1  UNL111     -0.0381
      8 C         122.9793  152.5118  145.5361 C.3     1  UNL111     -0.0381
      9 C         124.7808  154.0592  146.2965 C.3     1  UNL111     -0.0456
     10 C         118.3901  153.3180  146.4310 C.3     1  UNL111     -0.0055
     11 C         118.9037  150.9135  146.6449 C.2     1  UNL111      0.1472
     12 C         117.5278  153.6422  147.4837 C.3     1  UNL111     -0.0556
     13 C         118.3545  154.0639  145.2495 C.3     1  UNL111     -0.0556
     14 C         117.4364  150.5992  146.4682 C.3     1  UNL111      0.0310
     15 C         116.6398  154.7108  147.3559 C.3     1  UNL111     -0.0787
     16 C         117.4578  155.1260  145.1214 C.3     1  UNL111     -0.0787
     17 C         116.6050  155.4513  146.1753 C.3     1  UNL111     -0.0844
     18 H         122.9441  154.5826  145.5617 H       1  UNL111      0.1304
     19 H         121.1572  151.7684  147.3624 H       1  UNL111      0.0863
     20 H         120.6195  153.9663  148.3221 H       1  UNL111      0.0550
     21 H         120.7469  154.7215  146.7345 H       1  UNL111      0.0550
     22 H         121.1326  153.1335  144.6334 H       1  UNL111      0.0550
     23 H         121.2547  151.4024  144.9045 H       1  UNL111      0.0550
     24 H         122.8713  154.9997  147.9020 H       1  UNL111      0.0738
     25 H         123.0074  153.2412  148.1964 H       1  UNL111      0.0738
     26 H         123.3843  151.7226  146.1793 H       1  UNL111      0.0738
     27 H         123.4906  152.4920  144.5680 H       1  UNL111      0.0738
     28 H         125.1991  153.2880  146.9486 H       1  UNL111      0.0663
     29 H         124.9457  155.0569  146.7118 H       1  UNL111      0.0663
     30 H         125.2077  153.9992  145.2920 H       1  UNL111      0.0663
     31 H         117.5489  153.0801  148.4143 H       1  UNL111      0.0993
     32 H         118.9806  153.8043  144.4025 H       1  UNL111      0.0993
     33 H         117.3194  149.5250  146.2939 H       1  UNL111      0.0685
     34 H         117.0227  151.1246  145.6038 H       1  UNL111      0.0685
     35 H         116.8844  150.8613  147.3737 H       1  UNL111      0.0685
     36 H         115.9701  154.9644  148.1749 H       1  UNL111      0.0890
     37 H         117.4090  155.6923  144.1939 H       1  UNL111      0.0890
     38 H         115.9025  156.2760  146.0725 H       1  UNL111      0.0876
@<TRIPOS>UNITY_ATOM_ATTR
2 1
charge 1
@<TRIPOS>BOND
     1     1    11    2
     2     2     7    1
     3     2     8    1
     4     2     9    1
     5     3     4    1
     6     3    10    1
     7     3    11   am
     8     4     5    1
     9     4     6    1
    10     5     7    1
    11     6     8    1
    12    10    12   ar
    13    10    13   ar
    14    11    14    1
    15    12    15   ar
    16    13    16   ar
    17    15    17   ar
    18    16    17   ar
    19     2    18    1
    20     4    19    1
    21     5    20    1
    22     5    21    1
    23     6    22    1
    24     6    23    1
    25     7    24    1
    26     7    25    1
    27     8    26    1
    28     8    27    1
    29     9    28    1
    30     9    29    1
    31     9    30    1
    32    12    31    1
    33    13    32    1
    34    14    33    1
    35    14    34    1
    36    14    35    1
    37    15    36    1
    38    16    37    1
    39    17    38    1
@<TRIPOS>MOLECULE
615726
 54 56 0 0 0
SMALL
GASTEIGER

@<TRIPOS>ATOM
      1 O         116.3281  150.0302  145.9839 O.2     1  UNL111     -0.3837
      2 N         120.8117  152.8067  146.1115 N.4     1  UNL111      0.4270
      3 N         116.5501  152.2452  146.5635 N.am    1  UNL111     -0.2915
      4 C         118.0168  152.0896  146.5886 C.3     1  UNL111      0.0174
      5 C         118.7789  153.0382  147.5208 C.3     1  UNL111     -0.0330
      6 C         118.6049  152.1685  145.1718 C.3     1  UNL111     -0.0330
      7 C         120.2679  152.7227  147.5203 C.3     1  UNL111     -0.0369
      8 C         120.0885  151.8494  145.1823 C.3     1  UNL111     -0.0369
      9 C         122.3188  152.5727  146.0363 C.3     1  UNL111     -0.0340
     10 C         123.1550  153.6917  146.6949 C.3     1  UNL111     -0.0289
     11 C         115.9937  153.5482  146.5067 C.3     1  UNL111     -0.0055
     12 C         124.6282  153.3276  146.5943 C.3     1  UNL111     -0.0730
     13 C         122.8705  155.0795  146.1092 C.3     1  UNL111     -0.0547
     14 C         115.7924  151.1101  146.2467 C.2     1  UNL111      0.1472
     15 C         115.8755  154.3104  147.6723 C.3     1  UNL111     -0.0556
     16 C         115.5463  154.0684  145.2874 C.3     1  UNL111     -0.0556
     17 C         125.3055  152.8605  147.7324 C.3     1  UNL111     -0.0803
     18 C         125.3330  153.4141  145.3827 C.3     1  UNL111     -0.0803
     19 C         114.2868  151.2410  146.2470 C.3     1  UNL111      0.0310
     20 C         115.3296  155.5936  147.6151 C.3     1  UNL111     -0.0787
     21 C         115.0030  155.3525  145.2334 C.3     1  UNL111     -0.0787
     22 C         126.6505  152.4938  147.6603 C.3     1  UNL111     -0.0855
     23 C         126.6783  153.0465  145.3149 C.3     1  UNL111     -0.0855
     24 C         114.8979  156.1149  146.3960 C.3     1  UNL111     -0.0844
     25 C         127.3359  152.5861  146.4523 C.3     1  UNL111     -0.0867
     26 H         120.6320  153.7543  145.7527 H       1  UNL111      0.1325
     27 H         118.2097  151.0745  146.9643 H       1  UNL111      0.0863
     28 H         118.3977  152.9462  148.5442 H       1  UNL111      0.0550
     29 H         118.6410  154.0822  147.2143 H       1  UNL111      0.0550
     30 H         118.4453  153.1690  144.7501 H       1  UNL111      0.0550
     31 H         118.0951  151.4660  144.5023 H       1  UNL111      0.0550
     32 H         120.7968  153.4586  148.1309 H       1  UNL111      0.0741
     33 H         120.4753  151.7157  147.8989 H       1  UNL111      0.0741
     34 H         120.2894  150.8305  145.5320 H       1  UNL111      0.0741
     35 H         120.5113  151.9827  144.1811 H       1  UNL111      0.0741
     36 H         122.5651  152.4989  144.9701 H       1  UNL111      0.0762
     37 H         122.5130  151.5980  146.5006 H       1  UNL111      0.0762
     38 H         122.9040  153.7446  147.7611 H       1  UNL111      0.0638
     39 H         122.9516  155.0871  145.0171 H       1  UNL111      0.0321
     40 H         123.5724  155.8230  146.5035 H       1  UNL111      0.0321
     41 H         121.8621  155.4168  146.3698 H       1  UNL111      0.0321
     42 H         116.1715  153.9052  148.6359 H       1  UNL111      0.0993
     43 H         115.6160  153.4853  144.3725 H       1  UNL111      0.0993
     44 H         124.8022  152.7826  148.6941 H       1  UNL111      0.0896
     45 H         124.8569  153.7737  144.4735 H       1  UNL111      0.0896
     46 H         113.8439  150.2491  146.3804 H       1  UNL111      0.0685
     47 H         113.9481  151.6476  145.2911 H       1  UNL111      0.0685
     48 H         113.9423  151.8720  147.0700 H       1  UNL111      0.0685
     49 H         115.2227  156.1828  148.5233 H       1  UNL111      0.0890
     50 H         114.6502  155.7571  144.2871 H       1  UNL111      0.0890
     51 H         127.1690  152.1405  148.5492 H       1  UNL111      0.0876
     52 H         127.2196  153.1241  144.3743 H       1  UNL111      0.0876
     53 H         114.4624  157.1114  146.3547 H       1  UNL111      0.0876
     54 H         128.3855  152.3053  146.3988 H       1  UNL111      0.0874
@<TRIPOS>UNITY_ATOM_ATTR
2 1
charge 1
@<TRIPOS>BOND
     1     1    14    2
     2     2     7    1
     3     2     8    1
     4     2     9    1
     5     3     4    1
     6     3    11    1
     7     3    14   am
     8     4     5    1
     9     4     6    1
    10     5     7    1
    11     6     8    1
    12     9    10    1
    13    10    12    1
    14    10    13    1
    15    11    15   ar
    16    11    16   ar
    17    12    17   ar
    18    12    18   ar
    19    14    19    1
    20    15    20   ar
    21    16    21   ar
    22    17    22   ar
    23    18    23   ar
    24    20    24   ar
    25    21    24   ar
    26    22    25   ar
    27    23    25   ar
    28     2    26    1
    29     4    27    1
    30     5    28    1
    31     5    29    1
    32     6    30    1
    33     6    31    1
    34     7    32    1
    35     7    33    1
    36     8    34    1
    37     8    35    1
    38     9    36    1
    39     9    37    1
    40    10    38    1
    41    13    39    1
    42    13    40    1
    43    13    41    1
    44    15    42    1
    45    16    43    1
    46    17    44    1
    47    18    45    1
    48    19    46    1
    49    19    47    1
    50    19    48    1
    51    20    49    1
    52    21    50    1
    53    22    51    1
    54    23    52    1
    55    24    53    1
    56    25    54    1
@<TRIPOS>MOLECULE
137700053
 60 62 0 0 0
SMALL
GASTEIGER

@<TRIPOS>ATOM
      1 O         114.8439  153.7630  146.1601 O.2     1  UNL111     -0.3799
      2 N         121.3793  153.0977  146.7414 N.4     1  UNL111      0.4267
      3 N         117.0686  153.3152  146.4639 N.am    1  UNL111     -0.2893
      4 C         118.5142  153.6373  146.5428 C.3     1  UNL111      0.0179
      5 C         119.3148  153.0597  145.3639 C.3     1  UNL111     -0.0330
      6 C         119.1744  153.2487  147.8719 C.3     1  UNL111     -0.0330
      7 C         120.7697  153.4987  145.4162 C.3     1  UNL111     -0.0370
      8 C         120.6259  153.7014  147.9106 C.3     1  UNL111     -0.0370
      9 C         122.8673  153.4295  146.8338 C.3     1  UNL111     -0.0358
     10 C         116.1822  155.7487  146.3592 C.3     1  UNL111      0.0374
     11 C         115.9908  154.2033  146.3181 C.2     1  UNL111      0.1544
     12 C         116.7422  151.9208  146.3859 C.3     1  UNL111     -0.0050
     13 C         123.7075  152.5034  145.9497 C.3     1  UNL111     -0.0312
     14 C         116.8166  156.2259  147.6750 C.3     1  UNL111     -0.0411
     15 C         114.7696  156.3973  146.3061 C.3     1  UNL111     -0.0411
     16 C         116.9310  156.2619  145.1197 C.3     1  UNL111     -0.0411
     17 C         125.1766  152.7616  146.1595 C.3     1  UNL111     -0.0753
     18 C         116.3713  151.3621  145.1565 C.3     1  UNL111     -0.0555
     19 C         116.7640  151.1181  147.5301 C.3     1  UNL111     -0.0555
     20 C         116.0734  150.0018  145.0659 C.3     1  UNL111     -0.0787
     21 C         116.4627  149.7579  147.4371 C.3     1  UNL111     -0.0787
     22 C         125.8350  153.7562  145.4224 C.3     1  UNL111     -0.0811
     23 C         125.8962  152.0346  147.1182 C.3     1  UNL111     -0.0811
     24 C         116.1271  149.1992  146.2044 C.3     1  UNL111     -0.0844
     25 C         127.1885  154.0160  145.6404 C.3     1  UNL111     -0.0857
     26 C         127.2496  152.2979  147.3329 C.3     1  UNL111     -0.0857
     27 C         127.8945  153.2884  146.5957 C.3     1  UNL111     -0.0868
     28 H         121.3016  152.0730  146.8295 H       1  UNL111      0.1323
     29 H         118.6195  154.7131  146.4634 H       1  UNL111      0.0864
     30 H         118.8720  153.3873  144.4155 H       1  UNL111      0.0550
     31 H         119.2781  151.9634  145.3686 H       1  UNL111      0.0550
     32 H         119.1558  152.1637  148.0182 H       1  UNL111      0.0550
     33 H         118.6269  153.6955  148.7099 H       1  UNL111      0.0550
     34 H         121.3339  153.0056  144.6207 H       1  UNL111      0.0741
     35 H         120.8727  154.5851  145.3180 H       1  UNL111      0.0741
     36 H         120.7213  154.7907  147.8411 H       1  UNL111      0.0741
     37 H         121.1072  153.3491  148.8289 H       1  UNL111      0.0741
     38 H         123.1529  153.3015  147.8846 H       1  UNL111      0.0751
     39 H         122.9859  154.4857  146.5660 H       1  UNL111      0.0751
     40 H         123.4720  152.6453  144.8891 H       1  UNL111      0.0589
     41 H         123.4824  151.4533  146.1742 H       1  UNL111      0.0589
     42 H         116.3783  155.7016  148.5319 H       1  UNL111      0.0342
     43 H         116.6564  157.3003  147.8245 H       1  UNL111      0.0342
     44 H         117.8963  156.0771  147.7199 H       1  UNL111      0.0342
     45 H         114.1537  156.0783  147.1555 H       1  UNL111      0.0342
     46 H         114.2363  156.1221  145.3883 H       1  UNL111      0.0342
     47 H         114.8294  157.4917  146.3335 H       1  UNL111      0.0342
     48 H         117.9889  155.9983  145.1019 H       1  UNL111      0.0342
     49 H         116.8829  157.3553  145.0565 H       1  UNL111      0.0342
     50 H         116.4877  155.8547  144.2033 H       1  UNL111      0.0342
     51 H         116.2946  151.9833  144.2681 H       1  UNL111      0.0993
     52 H         116.9613  151.5458  148.5081 H       1  UNL111      0.0993
     53 H         115.7741  149.5725  144.1126 H       1  UNL111      0.0890
     54 H         116.4576  149.1372  148.3301 H       1  UNL111      0.0890
     55 H         125.3113  154.3333  144.6634 H       1  UNL111      0.0893
     56 H         125.4208  151.2495  147.7023 H       1  UNL111      0.0893
     57 H         115.8723  148.1437  146.1365 H       1  UNL111      0.0876
     58 H         127.6991  154.7820  145.0607 H       1  UNL111      0.0876
     59 H         127.8077  151.7262  148.0715 H       1  UNL111      0.0876
     60 H         128.9513  153.4879  146.7602 H       1  UNL111      0.0874
@<TRIPOS>UNITY_ATOM_ATTR
2 1
charge 1
@<TRIPOS>BOND
     1     1    11    2
     2     2     7    1
     3     2     8    1
     4     2     9    1
     5     3     4    1
     6     3    11   am
     7     3    12    1
     8     4     5    1
     9     4     6    1
    10     5     7    1
    11     6     8    1
    12     9    13    1
    13    10    11    1
    14    10    14    1
    15    10    15    1
    16    10    16    1
    17    12    18   ar
    18    12    19   ar
    19    13    17    1
    20    17    22   ar
    21    17    23   ar
    22    18    20   ar
    23    19    21   ar
    24    20    24   ar
    25    21    24   ar
    26    22    25   ar
    27    23    26   ar
    28    25    27   ar
    29    26    27   ar
    30     2    28    1
    31     4    29    1
    32     5    30    1
    33     5    31    1
    34     6    32    1
    35     6    33    1
    36     7    34    1
    37     7    35    1
    38     8    36    1
    39     8    37    1
    40     9    38    1
    41     9    39    1
    42    13    40    1
    43    13    41    1
    44    14    42    1
    45    14    43    1
    46    14    44    1
    47    15    45    1
    48    15    46    1
    49    15    47    1
    50    16    48    1
    51    16    49    1
    52    16    50    1
    53    18    51    1
    54    19    52    1
    55    20    53    1
    56    21    54    1
    57    22    55    1
    58    23    56    1
    59    24    57    1
    60    25    58    1
    61    26    59    1
    62    27    60    1
@<TRIPOS>MOLECULE
157010641
 60 63 0 0 0
SMALL
GASTEIGER

@<TRIPOS>ATOM
      1 O         115.0522  154.7018  147.3041 O.3     1  UNL111     -0.4321
      2 O         117.8165  154.9594  145.4603 O.2     1  UNL111     -0.3677
      3 O         129.2944  152.7275  146.8486 O.2     1  UNL111     -0.5649
      4 N         121.4730  153.1054  146.6091 N.4     1  UNL111      0.4267
      5 N         117.2169  152.9004  146.2839 N.am    1  UNL111     -0.2820
      6 C         118.6191  152.5254  146.5674 C.3     1  UNL111      0.0192
      7 C         119.4730  152.4802  145.2907 C.3     1  UNL111     -0.0328
      8 C         119.2465  153.4162  147.6489 C.3     1  UNL111     -0.0328
      9 C         120.9174  152.1288  145.5970 C.3     1  UNL111     -0.0370
     10 C         120.6953  153.0456  147.9059 C.3     1  UNL111     -0.0370
     11 C         122.9636  152.9133  146.8573 C.3     1  UNL111     -0.0357
     12 C         115.4447  154.6771  145.9181 C.3     1  UNL111      0.1058
     13 C         116.9157  154.1956  145.8291 C.2     1  UNL111      0.1860
     14 C         115.2454  156.0929  145.3879 C.3     1  UNL111     -0.0049
     15 C         116.2405  151.8722  146.4138 C.3     1  UNL111     -0.0036
     16 C         123.8012  153.4798  145.7069 C.3     1  UNL111     -0.0307
     17 C         115.3890  156.9371  146.6296 C.3     1  UNL111     -0.0266
     18 C         114.7544  156.0534  147.6772 C.3     1  UNL111      0.0098
     19 C         125.2713  153.3078  145.9902 C.3     1  UNL111     -0.0698
     20 C         115.4229  151.5309  145.3301 C.3     1  UNL111     -0.0554
     21 C         116.1400  151.1372  147.6013 C.3     1  UNL111     -0.0554
     22 C         114.5003  150.4883  145.4422 C.3     1  UNL111     -0.0787
     23 C         115.2144  150.0976  147.7130 C.3     1  UNL111     -0.0787
     24 C         125.9919  154.3079  146.6608 C.3     1  UNL111     -0.0652
     25 C         125.9281  152.1254  145.6197 C.3     1  UNL111     -0.0652
     26 C         114.3948  149.7745  146.6339 C.3     1  UNL111     -0.0844
     27 C         127.3462  154.1291  146.9552 C.3     1  UNL111     -0.0315
     28 C         127.2797  151.9488  145.9163 C.3     1  UNL111     -0.0315
     29 C         127.9776  152.9489  146.5810 C.3     1  UNL111      0.0326
     30 H         129.6769  153.5197  147.2613 H       1  UNL111      0.3342
     31 H         121.3467  154.0578  146.2311 H       1  UNL111      0.1323
     32 H         118.6274  151.5013  146.9655 H       1  UNL111      0.0865
     33 H         119.4574  153.4365  144.7586 H       1  UNL111      0.0551
     34 H         119.0571  151.7402  144.5959 H       1  UNL111      0.0551
     35 H         118.6752  153.3242  148.5806 H       1  UNL111      0.0551
     36 H         119.2041  154.4747  147.3708 H       1  UNL111      0.0551
     37 H         121.0148  151.1214  146.0167 H       1  UNL111      0.0741
     38 H         121.5202  152.2011  144.6880 H       1  UNL111      0.0741
     39 H         121.1496  153.7620  148.5984 H       1  UNL111      0.0741
     40 H         120.7984  152.0324  148.3101 H       1  UNL111      0.0741
     41 H         123.1352  151.8425  147.0170 H       1  UNL111      0.0751
     42 H         123.2052  153.4449  147.7853 H       1  UNL111      0.0751
     43 H         114.7886  154.0006  145.3697 H       1  UNL111      0.1381
     44 H         114.2237  156.1959  145.0008 H       1  UNL111      0.0532
     45 H         115.9317  156.3812  144.5871 H       1  UNL111      0.0532
     46 H         123.5757  154.5436  145.5608 H       1  UNL111      0.0590
     47 H         123.5627  152.9867  144.7582 H       1  UNL111      0.0590
     48 H         114.9110  157.9171  146.5514 H       1  UNL111      0.0462
     49 H         116.4503  157.0886  146.8578 H       1  UNL111      0.0462
     50 H         115.1354  156.2508  148.6829 H       1  UNL111      0.0892
     51 H         113.6650  156.1670  147.6866 H       1  UNL111      0.0892
     52 H         115.5101  152.0460  144.3770 H       1  UNL111      0.0993
     53 H         116.7436  151.3915  148.4675 H       1  UNL111      0.0993
     54 H         113.8645  150.2293  144.5985 H       1  UNL111      0.0890
     55 H         115.1218  149.5466  148.6461 H       1  UNL111      0.0890
     56 H         125.5138  155.2398  146.9559 H       1  UNL111      0.0928
     57 H         125.4053  151.3318  145.0906 H       1  UNL111      0.0928
     58 H         113.6702  148.9680  146.7228 H       1  UNL111      0.0876
     59 H         127.8900  154.9150  147.4715 H       1  UNL111      0.1102
     60 H         127.7929  151.0354  145.6253 H       1  UNL111      0.1102
@<TRIPOS>UNITY_ATOM_ATTR
4 1
charge 1
@<TRIPOS>BOND
     1     1    12    1
     2     1    18    1
     3     2    13    2
     4     3    29    1
     5     4     9    1
     6     4    10    1
     7     4    11    1
     8     5     6    1
     9     5    13   am
    10     5    15    1
    11     6     7    1
    12     6     8    1
    13     7     9    1
    14     8    10    1
    15    11    16    1
    16    12    13    1
    17    12    14    1
    18    14    17    1
    19    15    20   ar
    20    15    21   ar
    21    16    19    1
    22    17    18    1
    23    19    24   ar
    24    19    25   ar
    25    20    22   ar
    26    21    23   ar
    27    22    26   ar
    28    23    26   ar
    29    24    27   ar
    30    25    28   ar
    31    27    29   ar
    32    28    29   ar
    33     3    30    1
    34     4    31    1
    35     6    32    1
    36     7    33    1
    37     7    34    1
    38     8    35    1
    39     8    36    1
    40     9    37    1
    41     9    38    1
    42    10    39    1
    43    10    40    1
    44    11    41    1
    45    11    42    1
    46    12    43    1
    47    14    44    1
    48    14    45    1
    49    16    46    1
    50    16    47    1
    51    17    48    1
    52    17    49    1
    53    18    50    1
    54    18    51    1
    55    20    52    1
    56    21    53    1
    57    22    54    1
    58    23    55    1
    59    24    56    1
    60    25    57    1
    61    26    58    1
    62    27    59    1
    63    28    60    1
@<TRIPOS>MOLECULE
7666
 18 18 0 0 0
SMALL
GASTEIGER

@<TRIPOS>ATOM
      1 BR        124.0861  153.1147  146.2373 Br      1  UNL1111    -0.1496
      2 C         121.3592  153.1092  147.0592 C.3     1  UNL1111    -0.0220
      3 C         119.8836  153.1025  146.7469 C.ar    1  UNL1111    -0.0782
      4 C         119.1868  154.3071  146.5823 C.ar    1  UNL1111    -0.0828
      5 C         119.1974  151.8913  146.5854 C.ar    1  UNL1111    -0.0828
      6 C         122.1907  153.1126  145.7871 C.3     1  UNL1111    -0.0002
      7 C         117.8263  154.2993  146.2710 C.ar    1  UNL1111    -0.0860
      8 C         117.8369  151.8862  146.2741 C.ar    1  UNL1111    -0.0860
      9 C         117.1518  153.0895  146.1175 C.ar    1  UNL1111    -0.0868
     10 H         121.6035  152.2364  147.6788 H       1  UNL1111     0.0513
     11 H         121.5959  153.9844  147.6783 H       1  UNL1111     0.0513
     12 H         119.6986  155.2601  146.6972 H       1  UNL1111     0.0890
     13 H         119.7178  150.9432  146.7027 H       1  UNL1111     0.0890
     14 H         122.0168  152.2223  145.1754 H       1  UNL1111     0.0657
     15 H         122.0140  154.0045  145.1786 H       1  UNL1111     0.0657
     16 H         117.2920  155.2379  146.1483 H       1  UNL1111     0.0876
     17 H         117.3111  150.9425  146.1538 H       1  UNL1111     0.0876
     18 H         116.0922  153.0845  145.8758 H       1  UNL1111     0.0874
@<TRIPOS>BOND
     1     1     6    1
     2     2     3    1
     3     2     6    1
     4     3     4   ar
     5     3     5   ar
     6     4     7   ar
     7     5     8   ar
     8     7     9   ar
     9     8     9   ar
    10     2    10    1
    11     2    11    1
    12     4    12    1
    13     5    13    1
    14     6    14    1
    15     6    15    1
    16     7    16    1
    17     8    17    1
    18     9    18    1
@<TRIPOS>MOLECULE
5745882
 57 59 0 0 0
SMALL
GASTEIGER

@<TRIPOS>ATOM
      1 O         116.3261  150.3636  146.7913 O.2     1  UNL111     -0.3824
      2 N         121.2063  152.8288  146.0979 N.4     1  UNL111      0.4270
      3 N         116.9368  152.5528  146.4712 N.am    1  UNL111     -0.2900
      4 C         118.3644  152.1773  146.3235 C.3     1  UNL111      0.0193
      5 C         118.9844  152.5855  144.9661 C.3     1  UNL111     -0.0305
      6 C         119.2001  152.6793  147.5099 C.3     1  UNL111     -0.0323
      7 C         120.4776  152.2425  144.9088 C.3     1  UNL111     -0.0352
      8 C         120.6522  152.2672  147.3858 C.3     1  UNL111     -0.0367
      9 C         118.2849  151.8808  143.7964 C.3     1  UNL111     -0.0559
     10 C         122.7142  152.6325  145.9650 C.3     1  UNL111     -0.0356
     11 C         123.4847  153.5438  146.9262 C.3     1  UNL111     -0.0312
     12 C         116.5887  153.9283  146.4970 C.3     1  UNL111     -0.0052
     13 C         115.9919  151.5480  146.7200 C.2     1  UNL111      0.1498
     14 C         114.5394  151.9816  146.8929 C.3     1  UNL111      0.0336
     15 C         124.9712  153.3838  146.7465 C.3     1  UNL111     -0.0753
     16 C         116.5558  154.6184  147.7137 C.3     1  UNL111     -0.0555
     17 C         116.2535  154.5918  145.3142 C.3     1  UNL111     -0.0555
     18 C         113.6026  150.8029  147.0999 C.3     1  UNL111     -0.0446
     19 C         116.2276  155.9742  147.7396 C.3     1  UNL111     -0.0787
     20 C         115.9209  155.9468  145.3439 C.3     1  UNL111     -0.0787
     21 C         125.6471  152.3194  147.3611 C.3     1  UNL111     -0.0811
     22 C         125.6946  154.2822  145.9508 C.3     1  UNL111     -0.0811
     23 C         115.9154  156.6385  146.5544 C.3     1  UNL111     -0.0844
     24 C         127.0214  152.1591  147.1827 C.3     1  UNL111     -0.0857
     25 C         127.0696  154.1188  145.7764 C.3     1  UNL111     -0.0857
     26 C         127.7317  153.0579  146.3906 C.3     1  UNL111     -0.0868
     27 H         121.0404  153.8459  146.0867 H       1  UNL111      0.1325
     28 H         118.4271  151.0817  146.3637 H       1  UNL111      0.0875
     29 H         118.8834  153.6688  144.8274 H       1  UNL111      0.0599
     30 H         118.7894  152.2845  148.4471 H       1  UNL111      0.0552
     31 H         119.1581  153.7722  147.5810 H       1  UNL111      0.0552
     32 H         120.6566  151.1607  144.9168 H       1  UNL111      0.0753
     33 H         120.9291  152.6730  144.0077 H       1  UNL111      0.0753
     34 H         121.2240  152.6846  148.2175 H       1  UNL111      0.0741
     35 H         120.7808  151.1794  147.3647 H       1  UNL111      0.0741
     36 H         118.4067  150.7937  143.8612 H       1  UNL111      0.0311
     37 H         118.7077  152.2091  142.8408 H       1  UNL111      0.0311
     38 H         117.2127  152.0909  143.7718 H       1  UNL111      0.0311
     39 H         122.9750  152.8823  144.9297 H       1  UNL111      0.0751
     40 H         122.9225  151.5698  146.1329 H       1  UNL111      0.0751
     41 H         123.2405  153.3235  147.9710 H       1  UNL111      0.0589
     42 H         123.2001  154.5910  146.7634 H       1  UNL111      0.0589
     43 H         114.2226  152.5325  146.0013 H       1  UNL111      0.0734
     44 H         114.4656  152.6432  147.7618 H       1  UNL111      0.0734
     45 H         116.7738  154.1085  148.6487 H       1  UNL111      0.0993
     46 H         116.2234  154.0653  144.3653 H       1  UNL111      0.0993
     47 H         113.6341  150.1204  146.2444 H       1  UNL111      0.0319
     48 H         112.5726  151.1528  147.2208 H       1  UNL111      0.0319
     49 H         113.8770  150.2345  147.9947 H       1  UNL111      0.0319
     50 H         116.1995  156.5121  148.6848 H       1  UNL111      0.0890
     51 H         115.6495  156.4622  144.4249 H       1  UNL111      0.0890
     52 H         125.1198  151.6102  147.9953 H       1  UNL111      0.0893
     53 H         125.2059  155.1254  145.4674 H       1  UNL111      0.0893
     54 H         115.6466  157.6927  146.5764 H       1  UNL111      0.0876
     55 H         127.5440  151.3375  147.6679 H       1  UNL111      0.0876
     56 H         127.6309  154.8236  145.1666 H       1  UNL111      0.0876
     57 H         128.8046  152.9363  146.2584 H       1  UNL111      0.0874
@<TRIPOS>UNITY_ATOM_ATTR
2 1
charge 1
@<TRIPOS>BOND
     1     1    13    2
     2     2     7    1
     3     2     8    1
     4     2    10    1
     5     3     4    1
     6     3    12    1
     7     3    13   am
     8     4     5    1
     9     4     6    1
    10     5     7    1
    11     5     9    1
    12     6     8    1
    13    10    11    1
    14    11    15    1
    15    12    16   ar
    16    12    17   ar
    17    13    14    1
    18    14    18    1
    19    15    21   ar
    20    15    22   ar
    21    16    19   ar
    22    17    20   ar
    23    19    23   ar
    24    20    23   ar
    25    21    24   ar
    26    22    25   ar
    27    24    26   ar
    28    25    26   ar
    29     2    27    1
    30     4    28    1
    31     5    29    1
    32     6    30    1
    33     6    31    1
    34     7    32    1
    35     7    33    1
    36     8    34    1
    37     8    35    1
    38     9    36    1
    39     9    37    1
    40     9    38    1
    41    10    39    1
    42    10    40    1
    43    11    41    1
    44    11    42    1
    45    14    43    1
    46    14    44    1
    47    16    45    1
    48    17    46    1
    49    18    47    1
    50    18    48    1
    51    18    49    1
    52    19    50    1
    53    20    51    1
    54    21    52    1
    55    22    53    1
    56    23    54    1
    57    24    55    1
    58    25    56    1
    59    26    57    1
@<TRIPOS>MOLECULE
71748858
 55 57 0 0 0
SMALL
GASTEIGER

@<TRIPOS>ATOM
      1 O         117.9516  155.2187  145.4856 O.2     1  UNL111     -0.3802
      2 O         116.3250  156.6173  148.0453 O.3     1  UNL111     -0.4539
      3 N         121.4250  152.9222  146.1011 N.4     1  UNL111      0.4267
      4 N         117.1725  153.2055  146.2840 N.am    1  UNL111     -0.2893
      5 C         118.5398  152.6455  146.3842 C.3     1  UNL111      0.0177
      6 C         119.2301  152.5695  145.0127 C.3     1  UNL111     -0.0330
      7 C         119.3889  153.3919  147.4247 C.3     1  UNL111     -0.0330
      8 C         120.6538  152.0584  145.1272 C.3     1  UNL111     -0.0370
      9 C         120.8100  152.8633  147.4797 C.3     1  UNL111     -0.0370
     10 C         122.9056  152.5657  146.0935 C.3     1  UNL111     -0.0358
     11 C         123.7594  153.6987  146.6701 C.3     1  UNL111     -0.0312
     12 C         116.0798  152.2947  146.4122 C.3     1  UNL111     -0.0052
     13 C         117.0126  154.5581  145.9433 C.2     1  UNL111      0.1585
     14 C         115.6620  155.2091  146.2114 C.3     1  UNL111      0.0587
     15 C         125.2239  153.3594  146.5707 C.3     1  UNL111     -0.0753
     16 C         115.0458  152.2846  145.4664 C.3     1  UNL111     -0.0555
     17 C         116.0429  151.3653  147.4602 C.3     1  UNL111     -0.0555
     18 C         115.8381  156.6377  146.7055 C.3     1  UNL111      0.0227
     19 C         125.8579  152.6440  147.5965 C.3     1  UNL111     -0.0811
     20 C         125.9624  153.7227  145.4358 C.3     1  UNL111     -0.0811
     21 C         113.9913  151.3747  145.5749 C.3     1  UNL111     -0.0787
     22 C         114.9855  150.4585  147.5699 C.3     1  UNL111     -0.0787
     23 C         113.9607  150.4636  146.6273 C.3     1  UNL111     -0.0844
     24 C         127.2062  152.3011  147.4881 C.3     1  UNL111     -0.0857
     25 C         127.3104  153.3773  145.3315 C.3     1  UNL111     -0.0857
     26 C         127.9311  152.6663  146.3560 C.3     1  UNL111     -0.0868
     27 H         116.3361  157.5418  148.3528 H       1  UNL111      0.2339
     28 H         121.3454  153.8944  145.7614 H       1  UNL111      0.1323
     29 H         118.4699  151.6072  146.7332 H       1  UNL111      0.0863
     30 H         119.2556  153.5442  144.5159 H       1  UNL111      0.0550
     31 H         118.6577  151.9091  144.3496 H       1  UNL111      0.0550
     32 H         118.9247  153.2958  148.4140 H       1  UNL111      0.0550
     33 H         119.4313  154.4658  147.2148 H       1  UNL111      0.0550
     34 H         120.6960  151.0258  145.4912 H       1  UNL111      0.0741
     35 H         121.1557  152.1224  144.1560 H       1  UNL111      0.0741
     36 H         121.4115  153.4833  148.1492 H       1  UNL111      0.0741
     37 H         120.8486  151.8221  147.8187 H       1  UNL111      0.0741
     38 H         123.1844  152.3872  145.0483 H       1  UNL111      0.0751
     39 H         123.0213  151.6278  146.6489 H       1  UNL111      0.0751
     40 H         123.5107  153.8913  147.7195 H       1  UNL111      0.0589
     41 H         123.5617  154.6355  146.1341 H       1  UNL111      0.0589
     42 H         115.1036  154.6473  146.9658 H       1  UNL111      0.0863
     43 H         115.1024  155.2164  145.2707 H       1  UNL111      0.0863
     44 H         115.0590  152.9549  144.6112 H       1  UNL111      0.0993
     45 H         116.8042  151.3613  148.2348 H       1  UNL111      0.0993
     46 H         116.5323  157.2147  146.0871 H       1  UNL111      0.0924
     47 H         114.8690  157.1472  146.7101 H       1  UNL111      0.0924
     48 H         125.3182  152.3537  148.4953 H       1  UNL111      0.0893
     49 H         125.5051  154.2852  144.6245 H       1  UNL111      0.0893
     50 H         113.1947  151.3730  144.8340 H       1  UNL111      0.0890
     51 H         114.9533  149.7546  148.3985 H       1  UNL111      0.0890
     52 H         113.1360  149.7595  146.7141 H       1  UNL111      0.0876
     53 H         127.6975  151.7538  148.2897 H       1  UNL111      0.0876
     54 H         127.8828  153.6678  144.4530 H       1  UNL111      0.0876
     55 H         128.9836  152.4032  146.2756 H       1  UNL111      0.0874
@<TRIPOS>UNITY_ATOM_ATTR
3 1
charge 1
@<TRIPOS>BOND
     1     1    13    2
     2     2    18    1
     3     3     8    1
     4     3     9    1
     5     3    10    1
     6     4     5    1
     7     4    12    1
     8     4    13   am
     9     5     6    1
    10     5     7    1
    11     6     8    1
    12     7     9    1
    13    10    11    1
    14    11    15    1
    15    12    16   ar
    16    12    17   ar
    17    13    14    1
    18    14    18    1
    19    15    19   ar
    20    15    20   ar
    21    16    21   ar
    22    17    22   ar
    23    19    24   ar
    24    20    25   ar
    25    21    23   ar
    26    22    23   ar
    27    24    26   ar
    28    25    26   ar
    29     2    27    1
    30     3    28    1
    31     5    29    1
    32     6    30    1
    33     6    31    1
    34     7    32    1
    35     7    33    1
    36     8    34    1
    37     8    35    1
    38     9    36    1
    39     9    37    1
    40    10    38    1
    41    10    39    1
    42    11    40    1
    43    11    41    1
    44    14    42    1
    45    14    43    1
    46    16    44    1
    47    17    45    1
    48    18    46    1
    49    18    47    1
    50    19    48    1
    51    20    49    1
    52    21    50    1
    53    22    51    1
    54    23    52    1
    55    24    53    1
    56    25    54    1
    57    26    55    1
@<TRIPOS>MOLECULE
618633
 54 56 0 0 0
SMALL
GASTEIGER

@<TRIPOS>ATOM
      1 O         116.8277  149.9672  146.3533 O.2     1  UNL111     -0.3836
      2 N         121.1539  153.0037  146.5946 N.4     1  UNL111      0.4267
      3 N         116.9028  152.2584  146.4496 N.am    1  UNL111     -0.2905
      4 C         118.3442  152.2181  146.7497 C.3     1  UNL111      0.0176
      5 C         119.1807  151.9950  145.4825 C.3     1  UNL111     -0.0330
      6 C         118.8896  153.4210  147.5316 C.3     1  UNL111     -0.0330
      7 C         120.6476  151.8010  145.8266 C.3     1  UNL111     -0.0370
      8 C         120.3597  153.2254  147.8658 C.3     1  UNL111     -0.0370
      9 C         122.6460  152.9223  146.9058 C.3     1  UNL111     -0.0358
     10 C         123.4954  153.1141  145.6462 C.3     1  UNL111     -0.0312
     11 C         116.2640  153.5071  146.2559 C.3     1  UNL111     -0.0029
     12 C         116.2372  151.0456  146.2494 C.2     1  UNL111      0.1474
     13 C         115.5282  154.1167  147.2881 C.3     1  UNL111     -0.0542
     14 C         124.9557  153.2141  146.0018 C.3     1  UNL111     -0.0753
     15 C         116.3867  154.1355  145.0091 C.3     1  UNL111     -0.0546
     16 C         114.7732  151.0901  145.8801 C.3     1  UNL111      0.0311
     17 C         114.9263  155.3609  147.0383 C.3     1  UNL111     -0.0760
     18 C         115.3224  153.4952  148.6422 C.3     1  UNL111     -0.0364
     19 C         115.7848  155.3719  144.7819 C.3     1  UNL111     -0.0783
     20 C         125.5513  154.4656  146.2133 C.3     1  UNL111     -0.0811
     21 C         125.7292  152.0554  146.1597 C.3     1  UNL111     -0.0811
     22 C         115.0574  155.9851  145.7971 C.3     1  UNL111     -0.0834
     23 C         126.8964  154.5545  146.5741 C.3     1  UNL111     -0.0857
     24 C         127.0739  152.1491  146.5207 C.3     1  UNL111     -0.0857
     25 C         127.6563  153.3973  146.7288 C.3     1  UNL111     -0.0868
     26 H         121.0196  153.8387  146.0063 H       1  UNL111      0.1323
     27 H         118.4920  151.3389  147.3935 H       1  UNL111      0.0863
     28 H         119.0762  152.8481  144.8015 H       1  UNL111      0.0550
     29 H         118.8246  151.1156  144.9337 H       1  UNL111      0.0550
     30 H         118.3303  153.5516  148.4648 H       1  UNL111      0.0550
     31 H         118.7733  154.3473  146.9557 H       1  UNL111      0.0550
     32 H         120.8112  150.9143  146.4489 H       1  UNL111      0.0741
     33 H         121.2348  151.7168  144.9087 H       1  UNL111      0.0741
     34 H         120.7591  154.1225  148.3504 H       1  UNL111      0.0741
     35 H         120.5223  152.3572  148.5143 H       1  UNL111      0.0741
     36 H         122.8300  151.9569  147.3912 H       1  UNL111      0.0751
     37 H         122.8593  153.7216  147.6253 H       1  UNL111      0.0751
     38 H         123.1847  154.0194  145.1098 H       1  UNL111      0.0589
     39 H         123.3582  152.2824  144.9459 H       1  UNL111      0.0589
     40 H         116.9219  153.6558  144.1946 H       1  UNL111      0.0996
     41 H         114.4143  150.0702  145.7110 H       1  UNL111      0.0685
     42 H         114.6261  151.6588  144.9587 H       1  UNL111      0.0685
     43 H         114.1874  151.5264  146.6921 H       1  UNL111      0.0685
     44 H         114.3386  155.8506  147.8139 H       1  UNL111      0.0905
     45 H         115.9411  152.6078  148.7996 H       1  UNL111      0.0411
     46 H         114.2744  153.2021  148.7620 H       1  UNL111      0.0411
     47 H         115.5839  154.2125  149.4276 H       1  UNL111      0.0411
     48 H         115.8661  155.8509  143.8088 H       1  UNL111      0.0891
     49 H         124.9841  155.3859  146.0922 H       1  UNL111      0.0893
     50 H         125.3030  151.0681  145.9950 H       1  UNL111      0.0893
     51 H         114.5758  156.9446  145.6193 H       1  UNL111      0.0879
     52 H         127.3579  155.5274  146.7295 H       1  UNL111      0.0876
     53 H         127.6737  151.2486  146.6344 H       1  UNL111      0.0876
     54 H         128.7062  153.4687  147.0045 H       1  UNL111      0.0874
@<TRIPOS>UNITY_ATOM_ATTR
2 1
charge 1
@<TRIPOS>BOND
     1     1    12    2
     2     2     7    1
     3     2     8    1
     4     2     9    1
     5     3     4    1
     6     3    11    1
     7     3    12   am
     8     4     5    1
     9     4     6    1
    10     5     7    1
    11     6     8    1
    12     9    10    1
    13    10    14    1
    14    11    13   ar
    15    11    15   ar
    16    12    16    1
    17    13    17   ar
    18    13    18    1
    19    14    20   ar
    20    14    21   ar
    21    15    19   ar
    22    17    22   ar
    23    19    22   ar
    24    20    23   ar
    25    21    24   ar
    26    23    25   ar
    27    24    25   ar
    28     2    26    1
    29     4    27    1
    30     5    28    1
    31     5    29    1
    32     6    30    1
    33     6    31    1
    34     7    32    1
    35     7    33    1
    36     8    34    1
    37     8    35    1
    38     9    36    1
    39     9    37    1
    40    10    38    1
    41    10    39    1
    42    15    40    1
    43    16    41    1
    44    16    42    1
    45    16    43    1
    46    17    44    1
    47    18    45    1
    48    18    46    1
    49    18    47    1
    50    19    48    1
    51    20    49    1
    52    21    50    1
    53    22    51    1
    54    23    52    1
    55    24    53    1
    56    25    54    1
@<TRIPOS>MOLECULE
10314851
 52 54 0 0 0
SMALL
GASTEIGER

@<TRIPOS>ATOM
      1 O         116.5202  150.3324  146.7620 O.2     1  UNL111     -0.3702
      2 N         121.1963  152.7230  146.1255 N.4     1  UNL111      0.4267
      3 N         116.8927  152.5877  146.4925 N.am    1  UNL111     -0.2839
      4 C         118.3458  152.3546  146.6019 C.3     1  UNL111      0.0191
      5 C         118.9821  151.9992  145.2539 C.3     1  UNL111     -0.0327
      6 C         119.1443  153.4597  147.3066 C.3     1  UNL111     -0.0327
      7 C         120.4393  151.6033  145.4335 C.3     1  UNL111     -0.0370
      8 C         120.5964  153.0437  147.4780 C.3     1  UNL111     -0.0370
      9 C         122.6861  152.3955  146.2010 C.3     1  UNL111     -0.0358
     10 C         123.5167  153.6386  146.5347 C.3     1  UNL111     -0.0312
     11 C         116.4006  153.9195  146.4401 C.3     1  UNL111     -0.0036
     12 C         116.0634  151.4596  146.5630 C.2     1  UNL111      0.1769
     13 C         124.9904  153.3432  146.4416 C.3     1  UNL111     -0.0753
     14 C         115.5824  154.4002  147.4705 C.3     1  UNL111     -0.0553
     15 C         116.7499  154.7706  145.3867 C.3     1  UNL111     -0.0553
     16 C         114.6058  151.6433  146.3048 C.2     1  UNL111      0.0040
     17 C         125.6639  152.7469  147.5173 C.3     1  UNL111     -0.0811
     18 C         125.7025  153.6395  145.2712 C.3     1  UNL111     -0.0811
     19 C         115.1250  155.7186  147.4480 C.3     1  UNL111     -0.0787
     20 C         116.2831  156.0865  145.3623 C.3     1  UNL111     -0.0787
     21 C         115.4754  156.5605  146.3943 C.3     1  UNL111     -0.0844
     22 C         127.0253  152.4557  147.4228 C.3     1  UNL111     -0.0857
     23 C         127.0641  153.3472  145.1815 C.3     1  UNL111     -0.0857
     24 C         127.7243  152.7551  146.2558 C.3     1  UNL111     -0.0868
     25 C         113.7339  150.6748  146.6149 C.2     1  UNL111     -0.0894
     26 H         121.1100  153.5590  145.5302 H       1  UNL111      0.1323
     27 H         118.4621  151.4682  147.2420 H       1  UNL111      0.0866
     28 H         118.9196  152.8450  144.5610 H       1  UNL111      0.0551
     29 H         118.4406  151.1707  144.7823 H       1  UNL111      0.0551
     30 H         118.7111  153.6663  148.2926 H       1  UNL111      0.0551
     31 H         119.1125  154.3971  146.7400 H       1  UNL111      0.0551
     32 H         120.5494  150.7011  146.0455 H       1  UNL111      0.0741
     33 H         120.9108  151.4432  144.4583 H       1  UNL111      0.0741
     34 H         121.1649  153.8685  147.9144 H       1  UNL111      0.0741
     35 H         120.7005  152.1539  148.1087 H       1  UNL111      0.0741
     36 H         122.9715  152.0081  145.2158 H       1  UNL111      0.0751
     37 H         122.8110  151.5975  146.9420 H       1  UNL111      0.0751
     38 H         123.2982  154.0017  147.5452 H       1  UNL111      0.0589
     39 H         123.2612  154.4604  145.8540 H       1  UNL111      0.0589
     40 H         115.3099  153.7633  148.3094 H       1  UNL111      0.0993
     41 H         117.3440  154.4170  144.5515 H       1  UNL111      0.0993
     42 H         114.2587  152.5531  145.8325 H       1  UNL111      0.1200
     43 H         125.1459  152.5126  148.4448 H       1  UNL111      0.0893
     44 H         125.2151  154.1104  144.4203 H       1  UNL111      0.0893
     45 H         114.4931  156.0899  148.2520 H       1  UNL111      0.0890
     46 H         116.5350  156.7414  144.5310 H       1  UNL111      0.0890
     47 H         115.1092  157.5850  146.3731 H       1  UNL111      0.0876
     48 H         127.5471  152.0012  148.2623 H       1  UNL111      0.0876
     49 H         127.6163  153.5872  144.2753 H       1  UNL111      0.0876
     50 H         128.7871  152.5338  146.1862 H       1  UNL111      0.0874
     51 H         114.0516  149.7408  147.0709 H       1  UNL111      0.0728
     52 H         112.6743  150.7956  146.4132 H       1  UNL111      0.0728
@<TRIPOS>UNITY_ATOM_ATTR
2 1
charge 1
@<TRIPOS>BOND
     1     1    12    2
     2     2     7    1
     3     2     8    1
     4     2     9    1
     5     3     4    1
     6     3    11    1
     7     3    12   am
     8     4     5    1
     9     4     6    1
    10     5     7    1
    11     6     8    1
    12     9    10    1
    13    10    13    1
    14    11    14   ar
    15    11    15   ar
    16    12    16    1
    17    13    17   ar
    18    13    18   ar
    19    14    19   ar
    20    15    20   ar
    21    16    25    2
    22    17    22   ar
    23    18    23   ar
    24    19    21   ar
    25    20    21   ar
    26    22    24   ar
    27    23    24   ar
    28     2    26    1
    29     4    27    1
    30     5    28    1
    31     5    29    1
    32     6    30    1
    33     6    31    1
    34     7    32    1
    35     7    33    1
    36     8    34    1
    37     8    35    1
    38     9    36    1
    39     9    37    1
    40    10    38    1
    41    10    39    1
    42    14    40    1
    43    15    41    1
    44    16    42    1
    45    17    43    1
    46    18    44    1
    47    19    45    1
    48    20    46    1
    49    21    47    1
    50    22    48    1
    51    23    49    1
    52    24    50    1
    53    25    51    1
    54    25    52    1
@<TRIPOS>MOLECULE
13653667
 59 62 0 0 0
SMALL
GASTEIGER

@<TRIPOS>ATOM
      1 O         116.7830  155.3767  145.4298 O.2     1  UNL111     -0.3463
      2 O         118.3639  152.1243  144.4985 O.2     1  UNL111     -0.5753
      3 O         115.5062  152.3629  146.8258 O.2     1  UNL111     -0.5186
      4 N         121.9008  155.7232  146.5279 N.4     1  UNL111      0.4267
      5 N         117.9963  153.8551  146.6443 N.am    1  UNL111     -0.2541
      6 C         119.1077  154.8263  146.6874 C.3     1  UNL111      0.0246
      7 C         119.8780  154.8626  145.3545 C.3     1  UNL111     -0.0322
      8 C         120.0742  154.6740  147.8721 C.3     1  UNL111     -0.0322
      9 C         120.9514  155.9351  145.3662 C.3     1  UNL111     -0.0370
     10 C         121.1547  155.7439  147.8411 C.3     1  UNL111     -0.0370
     11 C         122.8275  154.5304  146.3078 C.3     1  UNL111     -0.0358
     12 C         124.0099  154.5376  147.2798 C.3     1  UNL111     -0.0312
     13 C         118.3000  152.4753  146.8466 C.3     1  UNL111      0.0542
     14 C         116.8181  154.2605  145.9615 C.2     1  UNL111      0.2441
     15 C         124.9636  153.4183  146.9505 C.3     1  UNL111     -0.0753
     16 C         118.4539  151.5909  145.7604 C.3     1  UNL111      0.0649
     17 C         118.4103  151.9940  148.1578 C.3     1  UNL111     -0.0385
     18 C         115.6566  153.3822  145.9231 C.3     1  UNL111      0.1553
     19 C         118.7638  150.2497  146.0047 C.3     1  UNL111     -0.0230
     20 C         124.7178  152.1182  147.4158 C.3     1  UNL111     -0.0811
     21 C         126.0840  153.6524  146.1416 C.3     1  UNL111     -0.0811
     22 C         118.7008  150.6504  148.3905 C.3     1  UNL111     -0.0730
     23 C         118.8839  149.7827  147.3161 C.3     1  UNL111     -0.0682
     24 C         114.5391  153.4254  145.1064 C.3     1  UNL111      0.0123
     25 C         125.5784  151.0733  147.0776 C.3     1  UNL111     -0.0857
     26 C         126.9424  152.6043  145.8063 C.3     1  UNL111     -0.0857
     27 C         113.6923  152.3646  145.5063 C.3     1  UNL111     -0.0179
     28 C         126.6889  151.3162  146.2725 C.3     1  UNL111     -0.0868
     29 C         114.3272  151.7482  146.5567 C.3     1  UNL111      0.0348
     30 C         117.8298  151.2459  143.5098 C.3     1  UNL111      0.0313
     31 H         122.5135  156.5507  146.5301 H       1  UNL111      0.1323
     32 H         118.6410  155.8143  146.8116 H       1  UNL111      0.0873
     33 H         119.1951  155.0608  144.5205 H       1  UNL111      0.0551
     34 H         120.3297  153.8861  145.1477 H       1  UNL111      0.0551
     35 H         120.5486  153.6872  147.8739 H       1  UNL111      0.0551
     36 H         119.5191  154.7583  148.8141 H       1  UNL111      0.0551
     37 H         121.5440  155.9313  144.4455 H       1  UNL111      0.0741
     38 H         120.5193  156.9347  145.4904 H       1  UNL111      0.0741
     39 H         120.7203  156.7459  147.9370 H       1  UNL111      0.0741
     40 H         121.8776  155.6170  148.6507 H       1  UNL111      0.0741
     41 H         123.1919  154.6092  145.2766 H       1  UNL111      0.0751
     42 H         122.2363  153.6138  146.3945 H       1  UNL111      0.0751
     43 H         123.6733  154.4167  148.3155 H       1  UNL111      0.0589
     44 H         124.5349  155.4998  147.2366 H       1  UNL111      0.0589
     45 H         118.2284  152.6503  149.0043 H       1  UNL111      0.1029
     46 H         118.9246  149.5470  145.1927 H       1  UNL111      0.1121
     47 H         123.8610  151.9013  148.0503 H       1  UNL111      0.0893
     48 H         126.3090  154.6487  145.7673 H       1  UNL111      0.0893
     49 H         118.7673  150.2747  149.4090 H       1  UNL111      0.0897
     50 H         119.1093  148.7339  147.4988 H       1  UNL111      0.0911
     51 H         114.3674  154.1449  144.3169 H       1  UNL111      0.1194
     52 H         125.3882  150.0672  147.4450 H       1  UNL111      0.0876
     53 H         127.8149  152.7903  145.1836 H       1  UNL111      0.0876
     54 H         112.7329  152.0904  145.0894 H       1  UNL111      0.1107
     55 H         127.3616  150.5016  146.0131 H       1  UNL111      0.0874
     56 H         114.0809  150.9086  147.1925 H       1  UNL111      0.1750
     57 H         117.5251  151.8559  142.6541 H       1  UNL111      0.1072
     58 H         116.9443  150.7132  143.8739 H       1  UNL111      0.1072
     59 H         118.5959  150.5453  143.1638 H       1  UNL111      0.1072
@<TRIPOS>UNITY_ATOM_ATTR
4 1
charge 1
@<TRIPOS>BOND
     1     1    14    2
     2     2    16    1
     3     2    30    1
     4     3    18   ar
     5     3    29   ar
     6     4     9    1
     7     4    10    1
     8     4    11    1
     9     5     6    1
    10     5    13    1
    11     5    14   am
    12     6     7    1
    13     6     8    1
    14     7     9    1
    15     8    10    1
    16    11    12    1
    17    12    15    1
    18    13    16   ar
    19    13    17   ar
    20    14    18    1
    21    15    20   ar
    22    15    21   ar
    23    16    19   ar
    24    17    22   ar
    25    18    24   ar
    26    19    23   ar
    27    20    25   ar
    28    21    26   ar
    29    22    23   ar
    30    24    27   ar
    31    25    28   ar
    32    26    28   ar
    33    27    29   ar
    34     4    31    1
    35     6    32    1
    36     7    33    1
    37     7    34    1
    38     8    35    1
    39     8    36    1
    40     9    37    1
    41     9    38    1
    42    10    39    1
    43    10    40    1
    44    11    41    1
    45    11    42    1
    46    12    43    1
    47    12    44    1
    48    17    45    1
    49    19    46    1
    50    20    47    1
    51    21    48    1
    52    22    49    1
    53    23    50    1
    54    24    51    1
    55    25    52    1
    56    26    53    1
    57    27    54    1
    58    28    55    1
    59    29    56    1
    60    30    57    1
    61    30    58    1
    62    30    59    1
@<TRIPOS>MOLECULE
71748859
 32 34 0 0 0
SMALL
GASTEIGER

@<TRIPOS>ATOM
      1 O         118.4864  154.7595  145.5967 O.2     1  UNL111     -0.3717
      2 O         114.0735  156.9776  146.4187 O.3     1  UNL111     -0.2802
      3 N         121.4420  153.7393  145.9787 N.4     1  UNL111      0.4556
      4 N         117.3091  152.8969  146.3599 N.am    1  UNL111     -0.2620
      5 C         118.5179  152.2300  146.6014 C.3     1  UNL111      0.1079
      6 C         119.3535  152.0252  145.4243 C.3     1  UNL111      0.0830
      7 C         119.3858  152.8648  147.5859 C.3     1  UNL111      0.0830
      8 C         120.6864  152.7625  145.1543 C.3     1  UNL111      0.0648
      9 C         120.7106  153.5869  147.2612 C.3     1  UNL111      0.0648
     10 C         122.8571  153.4893  146.0771 C.3     1  UNL111      0.0661
     11 C         124.3620  153.2395  146.2118 C.3     1  UNL111      0.0776
     12 C         116.0674  152.1782  146.5293 C.3     1  UNL111      0.0000
     13 C         117.4128  154.2631  145.9664 C.2     1  UNL111      0.2006
     14 C         116.3003  155.1636  146.1093 C.3     1  UNL111      0.2174
     15 C         125.7617  153.0174  146.3609 C.2     1  UNL111     -0.0058
     16 C         116.0456  150.9817  147.2767 C.3     1  UNL111     -0.0549
     17 C         114.8631  152.5797  145.9362 C.3     1  UNL111     -0.0549
     18 C         115.1283  156.1289  146.2736 C.3     1  UNL111      0.2286
     19 C         126.2508  152.4491  147.5348 C.2     1  UNL111     -0.0052
     20 C         126.6363  153.3788  145.3393 C.2     1  UNL111     -0.0052
     21 C         114.8672  150.2463  147.4516 C.3     1  UNL111     -0.0786
     22 C         113.6820  151.8479  146.1156 C.3     1  UNL111     -0.0786
     23 C         113.6824  150.6839  146.8743 C.3     1  UNL111     -0.0844
     24 C         127.6197  152.2409  147.6869 C.2     1  UNL111     -0.0019
     25 C         128.0052  153.1700  145.4927 C.2     1  UNL111     -0.0019
     26 C         128.4964  152.6018  146.6662 C.2     1  UNL111     -0.0007
     27 H         121.2275  154.6811  145.6153 H       1  UNL111      0.1720
     28 H         116.9354  150.6046  147.7724 H       1  UNL111      0.0994
     29 H         114.7852  153.4581  145.3009 H       1  UNL111      0.0994
     30 H         114.8737  149.3394  148.0507 H       1  UNL111      0.0890
     31 H         112.7600  152.2061  145.6614 H       1  UNL111      0.0890
     32 H         112.7599  150.1278  147.0173 H       1  UNL111      0.0876
@<TRIPOS>UNITY_ATOM_ATTR
3 1
charge 1
@<TRIPOS>BOND
     1     1    13    2
     2     2    18    1
     3     3     8    1
     4     3     9    1
     5     3    10    1
     6     4     5    1
     7     4    12    1
     8     4    13   am
     9     5     6    1
    10     5     7    1
    11     6     8    1
    12     7     9    1
    13    10    11    1
    14    11    15    1
    15    12    16   ar
    16    12    17   ar
    17    13    14    1
    18    14    18    1
    19    15    19    2
    20    15    20    1
    21    16    21   ar
    22    17    22   ar
    23    19    24    1
    24    20    25    2
    25    21    23   ar
    26    22    23   ar
    27    24    26    2
    28    25    26    1
    29     3    27    1
    30    16    28    1
    31    17    29    1
    32    21    30    1
    33    22    31    1
    34    23    32    1
@<TRIPOS>MOLECULE
126682249
 51 53 0 0 0
SMALL
GASTEIGER

@<TRIPOS>ATOM
      1 O         118.2356  155.5424  146.1296 O.2     1  UNL111     -0.3824
      2 O         125.8755  152.9932  145.4450 O.2     1  UNL111     -0.5513
      3 N         121.6272  153.0535  146.1827 N.4     1  UNL111      0.4277
      4 N         117.3836  153.4347  146.4676 N.am    1  UNL111     -0.2907
      5 C         118.7348  152.8244  146.4412 C.3     1  UNL111      0.0176
      6 C         119.6159  153.3134  147.6005 C.3     1  UNL111     -0.0330
      7 C         119.4146  153.0082  145.0742 C.3     1  UNL111     -0.0330
      8 C         121.0177  152.7357  147.5268 C.3     1  UNL111     -0.0367
      9 C         120.8196  152.4359  145.0614 C.3     1  UNL111     -0.0367
     10 C         123.0960  152.6484  146.0824 C.3     1  UNL111     -0.0253
     11 C         124.0057  153.6167  146.8449 C.3     1  UNL111      0.0069
     12 C         116.2732  152.5389  146.4826 C.3     1  UNL111     -0.0054
     13 C         117.2562  154.8287  146.3698 C.2     1  UNL111      0.1497
     14 C         115.8901  155.4497  146.6442 C.3     1  UNL111      0.0336
     15 C         125.4301  153.2248  146.7116 C.3     1  UNL111      0.0321
     16 C         115.2515  152.6473  145.5318 C.3     1  UNL111     -0.0556
     17 C         116.2153  151.5005  147.4220 C.3     1  UNL111     -0.0556
     18 C         116.0067  156.9011  147.0855 C.3     1  UNL111     -0.0446
     19 C         126.4548  153.0423  147.6152 C.3     1  UNL111     -0.0210
     20 C         114.1812  151.7493  145.5348 C.3     1  UNL111     -0.0787
     21 C         115.1428  150.6055  147.4262 C.3     1  UNL111     -0.0787
     22 C         114.1257  150.7314  146.4834 C.3     1  UNL111     -0.0844
     23 C         127.5919  152.6755  146.8551 C.3     1  UNL111     -0.0250
     24 C         127.1892  152.6620  145.5407 C.3     1  UNL111      0.0254
     25 H         121.5862  154.0764  146.0439 H       1  UNL111      0.1326
     26 H         118.6282  151.7389  146.5708 H       1  UNL111      0.0863
     27 H         119.1552  153.0330  148.5556 H       1  UNL111      0.0550
     28 H         119.6964  154.4051  147.6143 H       1  UNL111      0.0550
     29 H         119.4720  154.0634  144.7891 H       1  UNL111      0.0550
     30 H         118.8147  152.5189  144.2970 H       1  UNL111      0.0550
     31 H         121.6460  153.1835  148.3009 H       1  UNL111      0.0741
     32 H         121.0192  151.6465  147.6455 H       1  UNL111      0.0741
     33 H         120.8264  151.3496  145.2045 H       1  UNL111      0.0741
     34 H         121.3174  152.6822  144.1176 H       1  UNL111      0.0741
     35 H         123.3508  152.6573  145.0163 H       1  UNL111      0.0777
     36 H         123.1787  151.6192  146.4507 H       1  UNL111      0.0777
     37 H         123.7420  153.6412  147.9071 H       1  UNL111      0.0762
     38 H         123.8763  154.6343  146.4576 H       1  UNL111      0.0762
     39 H         115.3745  154.8893  147.4303 H       1  UNL111      0.0734
     40 H         115.2950  155.4149  145.7275 H       1  UNL111      0.0734
     41 H         115.2871  153.4011  144.7499 H       1  UNL111      0.0993
     42 H         116.9760  151.3962  148.1902 H       1  UNL111      0.0993
     43 H         116.6255  156.9886  147.9847 H       1  UNL111      0.0319
     44 H         115.0169  157.3116  147.3080 H       1  UNL111      0.0319
     45 H         116.4617  157.5172  146.3029 H       1  UNL111      0.0319
     46 H         126.4013  153.1648  148.6889 H       1  UNL111      0.1115
     47 H         113.3922  151.8400  144.7911 H       1  UNL111      0.0890
     48 H         115.0932  149.8145  148.1712 H       1  UNL111      0.0890
     49 H         113.2889  150.0361  146.4872 H       1  UNL111      0.0876
     50 H         128.5873  152.4562  147.2179 H       1  UNL111      0.1097
     51 H         127.6929  152.4526  144.6063 H       1  UNL111      0.1737
@<TRIPOS>UNITY_ATOM_ATTR
3 1
charge 1
@<TRIPOS>BOND
     1     1    13    2
     2     2    15   ar
     3     2    24   ar
     4     3     8    1
     5     3     9    1
     6     3    10    1
     7     4     5    1
     8     4    12    1
     9     4    13   am
    10     5     6    1
    11     5     7    1
    12     6     8    1
    13     7     9    1
    14    10    11    1
    15    11    15    1
    16    12    16   ar
    17    12    17   ar
    18    13    14    1
    19    14    18    1
    20    15    19   ar
    21    16    20   ar
    22    17    21   ar
    23    19    23   ar
    24    20    22   ar
    25    21    22   ar
    26    23    24   ar
    27     3    25    1
    28     5    26    1
    29     6    27    1
    30     6    28    1
    31     7    29    1
    32     7    30    1
    33     8    31    1
    34     8    32    1
    35     9    33    1
    36     9    34    1
    37    10    35    1
    38    10    36    1
    39    11    37    1
    40    11    38    1
    41    14    39    1
    42    14    40    1
    43    16    41    1
    44    17    42    1
    45    18    43    1
    46    18    44    1
    47    18    45    1
    48    19    46    1
    49    20    47    1
    50    21    48    1
    51    22    49    1
    52    23    50    1
    53    24    51    1
@<TRIPOS>MOLECULE
137700539
 60 62 0 0 0
SMALL
GASTEIGER

@<TRIPOS>ATOM
      1 O         118.0919  154.8451  145.2958 O.2     1  UNL111     -0.3821
      2 N         121.6006  152.7139  146.1115 N.4     1  UNL111      0.4267
      3 N         117.3421  152.8966  146.2575 N.am    1  UNL111     -0.2906
      4 C         118.7239  152.3849  146.4245 C.3     1  UNL111      0.0176
      5 C         119.5501  153.2536  147.3858 C.3     1  UNL111     -0.0330
      6 C         119.4213  152.1827  145.0688 C.3     1  UNL111     -0.0330
      7 C         120.9869  152.7753  147.4900 C.3     1  UNL111     -0.0370
      8 C         120.8594  151.7294  145.2342 C.3     1  UNL111     -0.0370
      9 C         123.0929  152.4086  146.1363 C.3     1  UNL111     -0.0358
     10 C         123.9067  153.6263  146.5838 C.3     1  UNL111     -0.0312
     11 C         117.1477  154.1897  145.7491 C.2     1  UNL111      0.1506
     12 C         116.2783  151.9787  146.5080 C.3     1  UNL111     -0.0053
     13 C         115.7502  154.7992  145.8375 C.3     1  UNL111      0.0360
     14 C         125.3821  153.3294  146.5169 C.3     1  UNL111     -0.0753
     15 C         115.7769  156.3256  145.9600 C.3     1  UNL111     -0.0394
     16 C         115.2704  151.7734  145.5577 C.3     1  UNL111     -0.0556
     17 C         116.2517  151.2309  147.6929 C.3     1  UNL111     -0.0556
     18 C         116.3036  156.7887  147.3206 C.3     1  UNL111     -0.0619
     19 C         114.2457  150.8543  145.7964 C.3     1  UNL111     -0.0787
     20 C         115.2243  150.3148  147.9320 C.3     1  UNL111     -0.0787
     21 C         126.0416  152.7577  147.6142 C.3     1  UNL111     -0.0811
     22 C         126.1066  153.5877  145.3448 C.3     1  UNL111     -0.0811
     23 C         114.2215  150.1279  146.9841 C.3     1  UNL111     -0.0844
     24 C         116.2896  158.3050  147.4342 C.3     1  UNL111     -0.0693
     25 C         127.4013  152.4528  147.5392 C.3     1  UNL111     -0.0857
     26 C         127.4660  153.2807  145.2741 C.3     1  UNL111     -0.0857
     27 C         128.1121  152.7127  146.3698 C.3     1  UNL111     -0.0868
     28 H         121.4897  153.6425  145.6728 H       1  UNL111      0.1323
     29 H         118.6743  151.3863  146.8788 H       1  UNL111      0.0863
     30 H         119.0877  153.2410  148.3804 H       1  UNL111      0.0550
     31 H         119.5620  154.3029  147.0740 H       1  UNL111      0.0550
     32 H         119.4184  153.0993  144.4707 H       1  UNL111      0.0550
     33 H         118.8701  151.4390  144.4802 H       1  UNL111      0.0550
     34 H         121.5693  153.4767  148.0928 H       1  UNL111      0.0741
     35 H         121.0560  151.7750  147.9318 H       1  UNL111      0.0741
     36 H         120.9321  150.7423  145.7042 H       1  UNL111      0.0741
     37 H         121.3610  151.7069  144.2610 H       1  UNL111      0.0741
     38 H         123.3774  152.1280  145.1154 H       1  UNL111      0.0751
     39 H         123.2408  151.5408  146.7894 H       1  UNL111      0.0751
     40 H         123.6504  153.9231  147.6068 H       1  UNL111      0.0589
     41 H         123.6769  154.4920  145.9500 H       1  UNL111      0.0589
     42 H         115.1974  154.3860  146.6868 H       1  UNL111      0.0747
     43 H         115.2195  154.5422  144.9148 H       1  UNL111      0.0747
     44 H         114.7550  156.7016  145.8263 H       1  UNL111      0.0381
     45 H         116.3829  156.7629  145.1574 H       1  UNL111      0.0381
     46 H         115.2824  152.2915  144.6026 H       1  UNL111      0.0993
     47 H         116.9991  151.3785  148.4670 H       1  UNL111      0.0993
     48 H         117.3274  156.4304  147.4755 H       1  UNL111      0.0312
     49 H         115.6876  156.3634  148.1216 H       1  UNL111      0.0312
     50 H         113.4677  150.7004  145.0516 H       1  UNL111      0.0890
     51 H         115.1983  149.7528  148.8630 H       1  UNL111      0.0890
     52 H         125.5132  152.5523  148.5426 H       1  UNL111      0.0893
     53 H         125.6293  154.0384  144.4772 H       1  UNL111      0.0893
     54 H         113.4199  149.4164  147.1707 H       1  UNL111      0.0876
     55 H         116.9222  158.7614  146.6663 H       1  UNL111      0.0256
     56 H         116.6670  158.6150  148.4137 H       1  UNL111      0.0256
     57 H         115.2740  158.6977  147.3218 H       1  UNL111      0.0256
     58 H         127.9124  152.0176  148.3954 H       1  UNL111      0.0876
     59 H         128.0272  153.4900  144.3659 H       1  UNL111      0.0876
     60 H         129.1733  152.4798  146.3149 H       1  UNL111      0.0874
@<TRIPOS>UNITY_ATOM_ATTR
2 1
charge 1
@<TRIPOS>BOND
     1     1    11    2
     2     2     7    1
     3     2     8    1
     4     2     9    1
     5     3     4    1
     6     3    11   am
     7     3    12    1
     8     4     5    1
     9     4     6    1
    10     5     7    1
    11     6     8    1
    12     9    10    1
    13    10    14    1
    14    11    13    1
    15    12    16   ar
    16    12    17   ar
    17    13    15    1
    18    14    21   ar
    19    14    22   ar
    20    15    18    1
    21    16    19   ar
    22    17    20   ar
    23    18    24    1
    24    19    23   ar
    25    20    23   ar
    26    21    25   ar
    27    22    26   ar
    28    25    27   ar
    29    26    27   ar
    30     2    28    1
    31     4    29    1
    32     5    30    1
    33     5    31    1
    34     6    32    1
    35     6    33    1
    36     7    34    1
    37     7    35    1
    38     8    36    1
    39     8    37    1
    40     9    38    1
    41     9    39    1
    42    10    40    1
    43    10    41    1
    44    13    42    1
    45    13    43    1
    46    15    44    1
    47    15    45    1
    48    16    46    1
    49    17    47    1
    50    18    48    1
    51    18    49    1
    52    19    50    1
    53    20    51    1
    54    21    52    1
    55    22    53    1
    56    23    54    1
    57    24    55    1
    58    24    56    1
    59    24    57    1
    60    25    58    1
    61    26    59    1
    62    27    60    1
@<TRIPOS>MOLECULE
156589019
 48 50 0 0 0
SMALL
GASTEIGER

@<TRIPOS>ATOM
      1 O         120.7321  155.0319  147.2716 O.2     1  UNL111     -0.3655
      2 N         124.5344  153.4655  146.5357 N.4     1  UNL111      0.4253
      3 N         120.3174  153.0022  146.2341 N.am    1  UNL111     -0.2808
      4 C         121.7658  152.7111  146.1083 C.3     1  UNL111      0.0196
      5 C         122.4381  152.5824  147.4875 C.3     1  UNL111     -0.0329
      6 C         122.4796  153.7209  145.1936 C.3     1  UNL111     -0.0329
      7 C         123.9343  152.3635  147.3699 C.3     1  UNL111     -0.0380
      8 C         123.9760  153.4745  145.1368 C.3     1  UNL111     -0.0380
      9 C         126.0369  153.4198  146.5419 C.3     1  UNL111     -0.0456
     10 C         119.4118  151.9052  146.0595 C.3     1  UNL111     -0.0021
     11 C         119.9268  154.2560  146.7511 C.2     1  UNL111      0.1918
     12 C         118.3816  151.6681  146.9817 C.3     1  UNL111     -0.0525
     13 C         119.5522  151.0318  144.9730 C.3     1  UNL111     -0.0548
     14 C         118.5272  154.7361  146.5942 C.3     1  UNL111      0.0431
     15 C         117.5036  150.5849  146.8264 C.3     1  UNL111     -0.0771
     16 C         118.6731  149.9604  144.8025 C.3     1  UNL111     -0.0777
     17 C         117.6498  149.7415  145.7219 C.3     1  UNL111     -0.0817
     18 C         117.8223  154.5643  145.3965 C.3     1  UNL111     -0.0495
     19 C         117.9398  155.4376  147.6548 C.3     1  UNL111     -0.0495
     20 C         116.3802  150.3723  147.7992 C.3     1  UNL111     -0.0424
     21 C         116.5191  155.0511  145.2809 C.3     1  UNL111     -0.0799
     22 C         116.6375  155.9236  147.5333 C.3     1  UNL111     -0.0799
     23 C         115.9272  155.7250  146.3494 C.3     1  UNL111     -0.0854
     24 H         124.2699  154.3612  146.9775 H       1  UNL111      0.1304
     25 H         121.8915  151.7320  145.6301 H       1  UNL111      0.0867
     26 H         121.9897  151.7463  148.0381 H       1  UNL111      0.0551
     27 H         122.2700  153.4708  148.1041 H       1  UNL111      0.0551
     28 H         122.3167  154.7516  145.5242 H       1  UNL111      0.0551
     29 H         122.0594  153.6594  144.1822 H       1  UNL111      0.0551
     30 H         124.4065  152.4000  148.3573 H       1  UNL111      0.0738
     31 H         124.1745  151.4093  146.8878 H       1  UNL111      0.0738
     32 H         124.2169  152.5111  144.6735 H       1  UNL111      0.0738
     33 H         124.4763  154.2772  144.5850 H       1  UNL111      0.0738
     34 H         126.3591  152.4820  146.0816 H       1  UNL111      0.0663
     35 H         126.3741  153.4841  147.5797 H       1  UNL111      0.0663
     36 H         126.4048  154.2809  145.9779 H       1  UNL111      0.0663
     37 H         118.2620  152.3058  147.8546 H       1  UNL111      0.1009
     38 H         120.3076  151.1962  144.2106 H       1  UNL111      0.0994
     39 H         118.7735  149.3026  143.9421 H       1  UNL111      0.0893
     40 H         116.9632  148.9105  145.5701 H       1  UNL111      0.0891
     41 H         118.2745  154.0592  144.5479 H       1  UNL111      0.0967
     42 H         118.4928  155.6076  148.5758 H       1  UNL111      0.0967
     43 H         116.6532  150.7313  148.7970 H       1  UNL111      0.0396
     44 H         116.1409  149.3077  147.8918 H       1  UNL111      0.0396
     45 H         115.4879  150.9087  147.4622 H       1  UNL111      0.0396
     46 H         115.9646  154.9105  144.3559 H       1  UNL111      0.0884
     47 H         116.1774  156.4629  148.3582 H       1  UNL111      0.0884
     48 H         114.9124  156.1061  146.2554 H       1  UNL111      0.0875
@<TRIPOS>UNITY_ATOM_ATTR
2 1
charge 1
@<TRIPOS>BOND
     1     1    11    2
     2     2     7    1
     3     2     8    1
     4     2     9    1
     5     3     4    1
     6     3    10    1
     7     3    11   am
     8     4     5    1
     9     4     6    1
    10     5     7    1
    11     6     8    1
    12    10    12   ar
    13    10    13   ar
    14    11    14    1
    15    12    15   ar
    16    13    16   ar
    17    14    18   ar
    18    14    19   ar
    19    15    17   ar
    20    15    20    1
    21    16    17   ar
    22    18    21   ar
    23    19    22   ar
    24    21    23   ar
    25    22    23   ar
    26     2    24    1
    27     4    25    1
    28     5    26    1
    29     5    27    1
    30     6    28    1
    31     6    29    1
    32     7    30    1
    33     7    31    1
    34     8    32    1
    35     8    33    1
    36     9    34    1
    37     9    35    1
    38     9    36    1
    39    12    37    1
    40    13    38    1
    41    16    39    1
    42    17    40    1
    43    18    41    1
    44    19    42    1
    45    20    43    1
    46    20    44    1
    47    20    45    1
    48    21    46    1
    49    22    47    1
    50    23    48    1
@<TRIPOS>MOLECULE
15358486
 60 62 0 0 0
SMALL
GASTEIGER

@<TRIPOS>ATOM
      1 O         121.2983  152.2692  148.7276 O.3     1  UNL111     -0.5281
      2 O         119.3649  153.4937  148.4352 O.2     1  UNL111     -0.3344
      3 O         122.2012  155.0454  147.7494 O.2     1  UNL111     -0.3823
      4 N         118.2634  153.6145  145.9343 N.4     1  UNL111      0.4302
      5 N         122.5981  153.5466  146.0496 N.am    1  UNL111     -0.2835
      6 C         121.1613  153.4282  145.6832 C.3     1  UNL111      0.0508
      7 C         120.3871  152.4222  146.5496 C.3     1  UNL111      0.0931
      8 C         120.4187  154.7706  145.5301 C.3     1  UNL111     -0.0263
      9 C         118.9583  152.2663  146.0267 C.3     1  UNL111     -0.0021
     10 C         118.9986  154.5694  145.0238 C.3     1  UNL111     -0.0350
     11 C         116.7906  153.5192  145.5671 C.3     1  UNL111     -0.0346
     12 C         120.2909  152.8123  148.0042 C.2     1  UNL111      0.2299
     13 C         115.9543  152.9643  146.7240 C.3     1  UNL111     -0.0311
     14 C         123.4558  152.4893  145.6024 C.3     1  UNL111     -0.0043
     15 C         123.0106  154.4678  147.0220 C.2     1  UNL111      0.1505
     16 C         124.5003  154.7877  147.1034 C.3     1  UNL111      0.0337
     17 C         114.4885  152.9874  146.3755 C.3     1  UNL111     -0.0753
     18 C         124.2231  151.7633  146.5245 C.3     1  UNL111     -0.0555
     19 C         123.4928  152.1160  144.2532 C.3     1  UNL111     -0.0555
     20 C         124.7307  156.2488  147.4587 C.3     1  UNL111     -0.0446
     21 C         121.2884  152.6222  150.1136 C.3     1  UNL111      0.0459
     22 C         113.6834  154.0672  146.7634 C.3     1  UNL111     -0.0811
     23 C         113.9188  151.9446  145.6310 C.3     1  UNL111     -0.0811
     24 C         125.0205  150.6967  146.1042 C.3     1  UNL111     -0.0787
     25 C         124.2932  151.0498  143.8338 C.3     1  UNL111     -0.0787
     26 C         125.0556  150.3409  144.7590 C.3     1  UNL111     -0.0844
     27 C         112.3329  154.1009  146.4136 C.3     1  UNL111     -0.0857
     28 C         112.5681  151.9828  145.2827 C.3     1  UNL111     -0.0857
     29 C         111.7764  153.0606  145.6728 C.3     1  UNL111     -0.0868
     30 H         118.2981  154.0238  146.8935 H       1  UNL111      0.1339
     31 H         121.1436  153.0106  144.6680 H       1  UNL111      0.0959
     32 H         120.8614  151.4334  146.5008 H       1  UNL111      0.1152
     33 H         120.9653  155.4189  144.8347 H       1  UNL111      0.0561
     34 H         120.3533  155.3151  146.4760 H       1  UNL111      0.0561
     35 H         118.9452  151.8310  145.0208 H       1  UNL111      0.0838
     36 H         118.3677  151.6308  146.6931 H       1  UNL111      0.0838
     37 H         118.4565  155.5208  145.0318 H       1  UNL111      0.0743
     38 H         118.9779  154.1460  144.0137 H       1  UNL111      0.0743
     39 H         116.7181  152.9031  144.6635 H       1  UNL111      0.0752
     40 H         116.4581  154.5351  145.3234 H       1  UNL111      0.0752
     41 H         116.1278  153.5507  147.6350 H       1  UNL111      0.0589
     42 H         116.2404  151.9348  146.9657 H       1  UNL111      0.0589
     43 H         124.9897  154.5865  146.1455 H       1  UNL111      0.0734
     44 H         124.9539  154.1571  147.8739 H       1  UNL111      0.0734
     45 H         124.1844  151.9849  147.5885 H       1  UNL111      0.0993
     46 H         122.9455  152.6724  143.4979 H       1  UNL111      0.0993
     47 H         124.2513  156.9083  146.7274 H       1  UNL111      0.0319
     48 H         125.8017  156.4729  147.4733 H       1  UNL111      0.0319
     49 H         124.3199  156.4875  148.4451 H       1  UNL111      0.0319
     50 H         120.4234  152.1708  150.6088 H       1  UNL111      0.1102
     51 H         121.2839  153.7093  150.2384 H       1  UNL111      0.1102
     52 H         122.1991  152.2243  150.5694 H       1  UNL111      0.1102
     53 H         114.0905  154.8886  147.3495 H       1  UNL111      0.0893
     54 H         114.5112  151.0862  145.3224 H       1  UNL111      0.0893
     55 H         125.6105  150.1392  146.8286 H       1  UNL111      0.0890
     56 H         124.3344  150.7781  142.7812 H       1  UNL111      0.0890
     57 H         125.6814  149.5133  144.4315 H       1  UNL111      0.0876
     58 H         111.7090  154.9362  146.7244 H       1  UNL111      0.0876
     59 H         112.1267  151.1684  144.7122 H       1  UNL111      0.0876
     60 H         110.7220  153.0861  145.4064 H       1  UNL111      0.0874
@<TRIPOS>UNITY_ATOM_ATTR
4 1
charge 1
@<TRIPOS>BOND
     1     1    12    1
     2     1    21    1
     3     2    12    2
     4     3    15    2
     5     4     9    1
     6     4    10    1
     7     4    11    1
     8     5     6    1
     9     5    14    1
    10     5    15   am
    11     6     7    1
    12     6     8    1
    13     7     9    1
    14     7    12    1
    15     8    10    1
    16    11    13    1
    17    13    17    1
    18    14    18   ar
    19    14    19   ar
    20    15    16    1
    21    16    20    1
    22    17    22   ar
    23    17    23   ar
    24    18    24   ar
    25    19    25   ar
    26    22    27   ar
    27    23    28   ar
    28    24    26   ar
    29    25    26   ar
    30    27    29   ar
    31    28    29   ar
    32     4    30    1
    33     6    31    1
    34     7    32    1
    35     8    33    1
    36     8    34    1
    37     9    35    1
    38     9    36    1
    39    10    37    1
    40    10    38    1
    41    11    39    1
    42    11    40    1
    43    13    41    1
    44    13    42    1
    45    16    43    1
    46    16    44    1
    47    18    45    1
    48    19    46    1
    49    20    47    1
    50    20    48    1
    51    20    49    1
    52    21    50    1
    53    21    51    1
    54    21    52    1
    55    22    53    1
    56    23    54    1
    57    24    55    1
    58    25    56    1
    59    26    57    1
    60    27    58    1
    61    28    59    1
    62    29    60    1
@<TRIPOS>MOLECULE
14969497
 41 42 0 0 0
SMALL
GASTEIGER

@<TRIPOS>ATOM
      1 O         119.6761  150.5144  147.4249 O.2     1  UNL111     -0.3824
      2 N         120.1045  152.6313  146.6398 N.am    1  UNL111     -0.2900
      3 N         116.0080  153.9783  146.3711 N.4     1  UNL111      0.4318
      4 C         118.6814  152.9819  146.8410 C.3     1  UNL111      0.0191
      5 C         117.7302  152.2714  145.8349 C.3     1  UNL111     -0.0306
      6 C         118.3441  154.4814  146.9699 C.3     1  UNL111     -0.0324
      7 C         116.2785  152.5141  146.2501 C.3     1  UNL111     -0.0318
      8 C         116.8862  154.6770  147.3533 C.3     1  UNL111     -0.0333
      9 C         117.9670  152.6643  144.3742 C.3     1  UNL111     -0.0560
     10 C         121.0603  153.6592  146.4192 C.3     1  UNL111     -0.0052
     11 C         120.4886  151.3153  146.9541 C.2     1  UNL111      0.1498
     12 C         121.9241  150.9035  146.6437 C.3     1  UNL111      0.0336
     13 C         121.0705  154.3821  145.2230 C.3     1  UNL111     -0.0555
     14 C         121.9864  153.9765  147.4208 C.3     1  UNL111     -0.0555
     15 C         122.0860  149.3922  146.6002 C.3     1  UNL111     -0.0446
     16 C         122.0021  155.4042  145.0271 C.3     1  UNL111     -0.0787
     17 C         122.9136  155.0011  147.2245 C.3     1  UNL111     -0.0787
     18 C         122.9214  155.7138  146.0276 C.3     1  UNL111     -0.0844
     19 H         115.0260  154.1071  146.6557 H       1  UNL111      0.1347
     20 H         116.0795  154.4301  145.4482 H       1  UNL111      0.1347
     21 H         118.4405  152.5571  147.8284 H       1  UNL111      0.0875
     22 H         117.8896  151.1878  145.8855 H       1  UNL111      0.0598
     23 H         118.5403  155.0152  146.0341 H       1  UNL111      0.0551
     24 H         118.9704  154.9472  147.7400 H       1  UNL111      0.0551
     25 H         115.5680  152.1206  145.5162 H       1  UNL111      0.0749
     26 H         116.0569  152.0670  147.2255 H       1  UNL111      0.0749
     27 H         116.6617  154.2643  148.3425 H       1  UNL111      0.0738
     28 H         116.6062  155.7345  147.3355 H       1  UNL111      0.0738
     29 H         117.8857  153.7421  144.2095 H       1  UNL111      0.0311
     30 H         117.2359  152.1739  143.7220 H       1  UNL111      0.0311
     31 H         118.9580  152.3394  144.0430 H       1  UNL111      0.0311
     32 H         122.5841  151.3016  147.4197 H       1  UNL111      0.0734
     33 H         122.2234  151.3174  145.6752 H       1  UNL111      0.0734
     34 H         120.3881  154.1432  144.4157 H       1  UNL111      0.0993
     35 H         121.9868  153.4451  148.3698 H       1  UNL111      0.0993
     36 H         121.8451  148.9413  147.5686 H       1  UNL111      0.0319
     37 H         123.1177  149.1271  146.3490 H       1  UNL111      0.0319
     38 H         121.4245  148.9484  145.8488 H       1  UNL111      0.0319
     39 H         122.0228  155.9524  144.0877 H       1  UNL111      0.0890
     40 H         123.6329  155.2425  148.0042 H       1  UNL111      0.0890
     41 H         123.6510  156.5058  145.8715 H       1  UNL111      0.0876
@<TRIPOS>UNITY_ATOM_ATTR
3 1
charge 1
@<TRIPOS>BOND
     1     1    11    2
     2     2     4    1
     3     2    10    1
     4     2    11   am
     5     3     7    1
     6     3     8    1
     7     4     5    1
     8     4     6    1
     9     5     7    1
    10     5     9    1
    11     6     8    1
    12    10    13   ar
    13    10    14   ar
    14    11    12    1
    15    12    15    1
    16    13    16   ar
    17    14    17   ar
    18    16    18   ar
    19    17    18   ar
    20     3    19    1
    21     3    20    1
    22     4    21    1
    23     5    22    1
    24     6    23    1
    25     6    24    1
    26     7    25    1
    27     7    26    1
    28     8    27    1
    29     8    28    1
    30     9    29    1
    31     9    30    1
    32     9    31    1
    33    12    32    1
    34    12    33    1
    35    13    34    1
    36    14    35    1
    37    15    36    1
    38    15    37    1
    39    15    38    1
    40    16    39    1
    41    17    40    1
    42    18    41    1
@<TRIPOS>MOLECULE
137700473
 56 58 0 0 0
SMALL
GASTEIGER

@<TRIPOS>ATOM
      1 O         117.9486  155.3900  146.2214 O.2     1  UNL111     -0.3388
      2 N         121.4631  153.0599  146.1941 N.4     1  UNL111      0.4268
      3 N         117.2171  153.2570  146.6569 N.am    1  UNL111     -0.2674
      4 N         115.8922  155.1716  147.1872 N.am    1  UNL111     -0.3145
      5 C         118.5949  152.7125  146.5876 C.3     1  UNL111      0.0238
      6 C         119.2073  152.8825  145.1871 C.3     1  UNL111     -0.0319
      7 C         119.5037  153.2842  147.6890 C.3     1  UNL111     -0.0319
      8 C         120.6350  152.3744  145.1293 C.3     1  UNL111     -0.0369
      9 C         120.9242  152.7621  147.5736 C.3     1  UNL111     -0.0369
     10 C         122.9381  152.7118  146.0426 C.3     1  UNL111     -0.0358
     11 C         123.8333  153.7219  146.7660 C.3     1  UNL111     -0.0312
     12 C         116.1501  152.3623  146.2907 C.3     1  UNL111      0.0017
     13 C         117.0544  154.6499  146.6427 C.2     1  UNL111      0.2240
     14 C         125.2865  153.3905  146.5456 C.3     1  UNL111     -0.0753
     15 C         115.1470  152.7703  145.3982 C.3     1  UNL111     -0.0543
     16 C         116.0986  151.0550  146.7960 C.3     1  UNL111     -0.0543
     17 C         125.9425  152.4824  147.3891 C.3     1  UNL111     -0.0811
     18 C         125.9908  153.9566  145.4740 C.3     1  UNL111     -0.0811
     19 C         114.1242  151.8962  145.0203 C.3     1  UNL111     -0.0786
     20 C         115.0731  150.1821  146.4201 C.3     1  UNL111     -0.0786
     21 C         115.0673  154.5046  148.1876 C.3     1  UNL111     -0.0066
     22 C         115.5626  156.5627  146.9258 C.3     1  UNL111     -0.0066
     23 C         114.0884  150.6021  145.5306 C.3     1  UNL111     -0.0844
     24 C         127.2787  152.1492  147.1640 C.3     1  UNL111     -0.0857
     25 C         127.3271  153.6205  145.2527 C.3     1  UNL111     -0.0857
     26 C         127.9697  152.7167  146.0960 C.3     1  UNL111     -0.0868
     27 H         121.3718  154.0756  146.0304 H       1  UNL111      0.1323
     28 H         118.5583  151.6339  146.7767 H       1  UNL111      0.0878
     29 H         119.2013  153.9299  144.8695 H       1  UNL111      0.0552
     30 H         118.6014  152.3413  144.4501 H       1  UNL111      0.0552
     31 H         119.0957  153.0212  148.6727 H       1  UNL111      0.0552
     32 H         119.5409  154.3778  147.6597 H       1  UNL111      0.0552
     33 H         120.6970  151.2942  145.3029 H       1  UNL111      0.0741
     34 H         121.0802  152.6126  144.1576 H       1  UNL111      0.0741
     35 H         121.5635  153.2623  148.3055 H       1  UNL111      0.0741
     36 H         120.9780  151.6786  147.7269 H       1  UNL111      0.0741
     37 H         123.1596  152.7243  144.9689 H       1  UNL111      0.0751
     38 H         123.0736  151.6892  146.4134 H       1  UNL111      0.0751
     39 H         123.6340  153.7341  147.8430 H       1  UNL111      0.0589
     40 H         123.6273  154.7381  146.4071 H       1  UNL111      0.0589
     41 H         115.1536  153.7673  144.9639 H       1  UNL111      0.0995
     42 H         116.8163  150.7032  147.5306 H       1  UNL111      0.0995
     43 H         125.4298  152.0310  148.2356 H       1  UNL111      0.0893
     44 H         125.5162  154.6709  144.8044 H       1  UNL111      0.0893
     45 H         113.3557  152.2275  144.3255 H       1  UNL111      0.0890
     46 H         115.0336  149.1763  146.8325 H       1  UNL111      0.0890
     47 H         115.5314  153.5910  148.5636 H       1  UNL111      0.0662
     48 H         114.0886  154.2848  147.7528 H       1  UNL111      0.0662
     49 H         114.9341  155.1798  149.0392 H       1  UNL111      0.0662
     50 H         116.1026  156.9466  146.0557 H       1  UNL111      0.0662
     51 H         115.8304  157.1584  147.8034 H       1  UNL111      0.0662
     52 H         114.4881  156.6457  146.7377 H       1  UNL111      0.0662
     53 H         113.2886  149.9243  145.2405 H       1  UNL111      0.0876
     54 H         127.7872  151.4507  147.8251 H       1  UNL111      0.0876
     55 H         127.8734  154.0678  144.4250 H       1  UNL111      0.0876
     56 H         129.0130  152.4604  145.9250 H       1  UNL111      0.0874
@<TRIPOS>UNITY_ATOM_ATTR
2 1
charge 1
@<TRIPOS>BOND
     1     1    13    2
     2     2     8    1
     3     2     9    1
     4     2    10    1
     5     3     5    1
     6     3    12    1
     7     3    13   am
     8     4    13   am
     9     4    21    1
    10     4    22    1
    11     5     6    1
    12     5     7    1
    13     6     8    1
    14     7     9    1
    15    10    11    1
    16    11    14    1
    17    12    15   ar
    18    12    16   ar
    19    14    17   ar
    20    14    18   ar
    21    15    19   ar
    22    16    20   ar
    23    17    24   ar
    24    18    25   ar
    25    19    23   ar
    26    20    23   ar
    27    24    26   ar
    28    25    26   ar
    29     2    27    1
    30     5    28    1
    31     6    29    1
    32     6    30    1
    33     7    31    1
    34     7    32    1
    35     8    33    1
    36     8    34    1
    37     9    35    1
    38     9    36    1
    39    10    37    1
    40    10    38    1
    41    11    39    1
    42    11    40    1
    43    15    41    1
    44    16    42    1
    45    17    43    1
    46    18    44    1
    47    19    45    1
    48    20    46    1
    49    21    47    1
    50    21    48    1
    51    21    49    1
    52    22    50    1
    53    22    51    1
    54    22    52    1
    55    23    53    1
    56    24    54    1
    57    25    55    1
    58    26    56    1
@<TRIPOS>MOLECULE
165361478
 64 66 0 0 0
SMALL
GASTEIGER

@<TRIPOS>ATOM
      1 O         116.0584  155.4352  145.4571 O.2     1  UNL111     -0.3824
      2 O         122.8875  151.0738  145.5561 O.2     1  UNL111     -0.5768
      3 O         126.5023  155.1260  146.6973 O.2     1  UNL111     -0.5570
      4 O         128.0338  151.8098  145.6660 O.co2   1  UNL111     -0.4609
      5 O         127.9809  152.7937  147.6377 O.2     1  UNL111     -0.0958
      6 N         119.5778  153.4653  146.7080 N.4     1  UNL111      0.4269
      7 N         115.3131  153.4911  146.4293 N.am    1  UNL111     -0.2907
      8 N         127.4751  152.4640  146.5568 N.pl3   1  UNL111      0.0118
      9 C         116.6946  153.0516  146.7393 C.3     1  UNL111      0.0176
     10 C         117.5300  152.8450  145.4643 C.3     1  UNL111     -0.0330
     11 C         117.3887  153.9849  147.7418 C.3     1  UNL111     -0.0330
     12 C         118.9562  152.4384  145.7866 C.3     1  UNL111     -0.0370
     13 C         118.8186  153.5545  148.0117 C.3     1  UNL111     -0.0370
     14 C         121.0586  153.2027  146.9511 C.3     1  UNL111     -0.0330
     15 C         121.9091  153.6613  145.7619 C.3     1  UNL111     -0.0136
     16 C         114.2679  152.5530  146.6808 C.3     1  UNL111     -0.0054
     17 C         115.1060  154.7473  145.8394 C.2     1  UNL111      0.1497
     18 C         123.3724  153.3387  145.9759 C.3     1  UNL111      0.0063
     19 C         113.6786  155.2783  145.7508 C.3     1  UNL111      0.0336
     20 C         113.3502  152.2152  145.6794 C.3     1  UNL111     -0.0556
     21 C         114.1757  151.9152  147.9255 C.3     1  UNL111     -0.0556
     22 C         123.8426  152.0134  145.8506 C.3     1  UNL111      0.0754
     23 C         124.2740  154.3739  146.2859 C.3     1  UNL111      0.0224
     24 C         113.6435  156.7954  145.6411 C.3     1  UNL111     -0.0446
     25 C         112.3455  151.2760  145.9252 C.3     1  UNL111     -0.0787
     26 C         113.1685  150.9789  148.1713 C.3     1  UNL111     -0.0787
     27 C         125.6273  154.0975  146.4907 C.3     1  UNL111      0.1537
     28 C         125.1976  151.7373  146.0397 C.3     1  UNL111      0.0949
     29 C         112.2531  150.6612  147.1714 C.3     1  UNL111     -0.0844
     30 C         126.0755  152.7854  146.3513 C.3     1  UNL111      0.2518
     31 C         123.3543  149.7811  145.1697 C.3     1  UNL111      0.0305
     32 C         126.3633  155.6854  148.0052 C.3     1  UNL111      0.0357
     33 H         119.4982  154.3873  146.2500 H       1  UNL111      0.1323
     34 H         116.6442  152.0638  147.2173 H       1  UNL111      0.0863
     35 H         117.5629  153.7495  144.8490 H       1  UNL111      0.0550
     36 H         117.0627  152.0729  144.8408 H       1  UNL111      0.0550
     37 H         116.8273  153.9976  148.6839 H       1  UNL111      0.0550
     38 H         117.4025  155.0200  147.3850 H       1  UNL111      0.0550
     39 H         119.0014  151.4665  146.2907 H       1  UNL111      0.0741
     40 H         119.5509  152.3974  144.8703 H       1  UNL111      0.0741
     41 H         119.3228  154.2971  148.6390 H       1  UNL111      0.0741
     42 H         118.8707  152.5731  148.4963 H       1  UNL111      0.0741
     43 H         121.1637  152.1375  147.1824 H       1  UNL111      0.0754
     44 H         121.3466  153.7746  147.8413 H       1  UNL111      0.0754
     45 H         121.7815  154.7417  145.6169 H       1  UNL111      0.0626
     46 H         121.5829  153.1985  144.8239 H       1  UNL111      0.0626
     47 H         113.1134  154.9823  146.6401 H       1  UNL111      0.0734
     48 H         113.1991  154.8581  144.8625 H       1  UNL111      0.0734
     49 H         113.4216  152.6420  144.6826 H       1  UNL111      0.0993
     50 H         114.8539  152.1657  148.7359 H       1  UNL111      0.0993
     51 H         123.9339  155.4066  146.3379 H       1  UNL111      0.1228
     52 H         114.1440  157.2618  146.4961 H       1  UNL111      0.0319
     53 H         112.6088  157.1506  145.6126 H       1  UNL111      0.0319
     54 H         114.1452  157.1376  144.7299 H       1  UNL111      0.0319
     55 H         111.6369  151.0186  145.1409 H       1  UNL111      0.0890
     56 H         113.0895  150.5035  149.1464 H       1  UNL111      0.0890
     57 H         125.5961  150.7299  145.9552 H       1  UNL111      0.1582
     58 H         111.4667  149.9340  147.3625 H       1  UNL111      0.0876
     59 H         122.4854  149.1959  144.8538 H       1  UNL111      0.1070
     60 H         123.8140  149.2643  146.0181 H       1  UNL111      0.1070
     61 H         124.0423  149.8440  144.3200 H       1  UNL111      0.1070
     62 H         127.2326  156.3228  148.1915 H       1  UNL111      0.1077
     63 H         126.3379  154.9084  148.7775 H       1  UNL111      0.1077
     64 H         125.4654  156.3087  148.0646 H       1  UNL111      0.1077
@<TRIPOS>UNITY_ATOM_ATTR
4 1
charge -1
6 1
charge 1
8 1
charge 1
@<TRIPOS>BOND
     1     1    17    2
     2     2    22    1
     3     2    31    1
     4     3    27    1
     5     3    32    1
     6     4     8    1
     7     5     8    2
     8     6    12    1
     9     6    13    1
    10     6    14    1
    11     7     9    1
    12     7    16    1
    13     7    17   am
    14     8    30    1
    15     9    10    1
    16     9    11    1
    17    10    12    1
    18    11    13    1
    19    14    15    1
    20    15    18    1
    21    16    20   ar
    22    16    21   ar
    23    17    19    1
    24    18    22   ar
    25    18    23   ar
    26    19    24    1
    27    20    25   ar
    28    21    26   ar
    29    22    28   ar
    30    23    27   ar
    31    25    29   ar
    32    26    29   ar
    33    27    30   ar
    34    28    30   ar
    35     6    33    1
    36     9    34    1
    37    10    35    1
    38    10    36    1
    39    11    37    1
    40    11    38    1
    41    12    39    1
    42    12    40    1
    43    13    41    1
    44    13    42    1
    45    14    43    1
    46    14    44    1
    47    15    45    1
    48    15    46    1
    49    19    47    1
    50    19    48    1
    51    20    49    1
    52    21    50    1
    53    23    51    1
    54    24    52    1
    55    24    53    1
    56    24    54    1
    57    25    55    1
    58    26    56    1
    59    28    57    1
    60    29    58    1
    61    31    59    1
    62    31    60    1
    63    31    61    1
    64    32    62    1
    65    32    63    1
    66    32    64    1
@<TRIPOS>MOLECULE
165361479
 68 70 0 0 0
SMALL
GASTEIGER

@<TRIPOS>ATOM
      1 O         116.3645  155.4486  145.5940 O.2     1  UNL111     -0.3824
      2 O         123.1305  151.0419  145.5126 O.2     1  UNL111     -0.5814
      3 O         126.7865  155.0162  146.8199 O.2     1  UNL111     -0.5818
      4 N         119.8222  153.3884  146.7381 N.4     1  UNL111      0.4269
      5 N         115.5689  153.4783  146.4715 N.am    1  UNL111     -0.2907
      6 C         116.9389  152.9949  146.7707 C.3     1  UNL111      0.0176
      7 C         117.6482  153.8733  147.8129 C.3     1  UNL111     -0.0330
      8 C         117.7693  152.8164  145.4881 C.3     1  UNL111     -0.0330
      9 C         119.0787  153.4260  148.0520 C.3     1  UNL111     -0.0370
     10 C         119.1939  152.3913  145.7912 C.3     1  UNL111     -0.0370
     11 C         121.3083  153.1274  146.9518 C.3     1  UNL111     -0.0331
     12 C         122.1343  153.6155  145.7573 C.3     1  UNL111     -0.0147
     13 C         114.5040  152.5457  146.6487 C.3     1  UNL111     -0.0054
     14 C         115.3949  154.7653  145.9397 C.2     1  UNL111      0.1497
     15 C         123.6001  153.3039  145.9511 C.3     1  UNL111     -0.0042
     16 C         113.9804  155.3324  145.8697 C.3     1  UNL111      0.0336
     17 C         114.3787  151.8358  147.8505 C.3     1  UNL111     -0.0556
     18 C         113.5989  152.2852  145.6130 C.3     1  UNL111     -0.0556
     19 C         124.0752  151.9874  145.8234 C.3     1  UNL111      0.0450
     20 C         124.4953  154.3384  146.2782 C.3     1  UNL111     -0.0087
     21 C         113.9811  156.8538  145.8512 C.3     1  UNL111     -0.0446
     22 C         125.8525  154.0745  146.4826 C.3     1  UNL111      0.0428
     23 C         125.4282  151.7225  146.0397 C.3     1  UNL111     -0.0108
     24 C         126.3251  152.7567  146.3648 C.3     1  UNL111     -0.0120
     25 C         113.3515  150.9046  148.0216 C.3     1  UNL111     -0.0787
     26 C         112.5743  151.3509  145.7839 C.3     1  UNL111     -0.0787
     27 C         112.4491  150.6639  146.9887 C.3     1  UNL111     -0.0844
     28 C         127.7806  152.4155  146.6050 C.3     1  UNL111     -0.0241
     29 C         128.0737  152.1885  148.0806 C.3     1  UNL111     -0.0599
     30 C         123.6165  149.7561  145.1309 C.3     1  UNL111      0.0297
     31 C         126.4061  156.3842  146.7557 C.3     1  UNL111      0.0297
     32 H         119.7353  154.3256  146.3141 H       1  UNL111      0.1323
     33 H         116.8651  151.9918  147.2121 H       1  UNL111      0.0863
     34 H         117.0930  153.8428  148.7584 H       1  UNL111      0.0550
     35 H         117.6657  154.9250  147.5093 H       1  UNL111      0.0550
     36 H         117.8056  153.7366  144.8968 H       1  UNL111      0.0550
     37 H         117.2935  152.0652  144.8456 H       1  UNL111      0.0550
     38 H         119.5919  154.1400  148.7047 H       1  UNL111      0.0741
     39 H         119.1310  152.4253  148.4953 H       1  UNL111      0.0741
     40 H         119.2365  151.4049  146.2664 H       1  UNL111      0.0741
     41 H         119.7826  152.3733  144.8705 H       1  UNL111      0.0741
     42 H         121.4203  152.0581  147.1595 H       1  UNL111      0.0754
     43 H         121.6073  153.6827  147.8489 H       1  UNL111      0.0754
     44 H         121.9925  154.6963  145.6304 H       1  UNL111      0.0625
     45 H         121.8021  153.1629  144.8166 H       1  UNL111      0.0625
     46 H         113.3988  154.9968  146.7340 H       1  UNL111      0.0734
     47 H         113.5015  154.9770  144.9532 H       1  UNL111      0.0734
     48 H         115.0466  152.0249  148.6858 H       1  UNL111      0.0993
     49 H         113.6957  152.7698  144.6452 H       1  UNL111      0.0993
     50 H         124.1139  155.3503  146.3737 H       1  UNL111      0.1161
     51 H         114.4830  157.2561  146.7374 H       1  UNL111      0.0319
     52 H         112.9551  157.2344  145.8346 H       1  UNL111      0.0319
     53 H         114.5001  157.2384  144.9670 H       1  UNL111      0.0319
     54 H         125.8225  150.7126  145.9701 H       1  UNL111      0.1157
     55 H         113.2471  150.3724  148.9645 H       1  UNL111      0.0890
     56 H         111.8763  151.1538  144.9731 H       1  UNL111      0.0890
     57 H         111.6476  149.9404  147.1219 H       1  UNL111      0.0876
     58 H         128.4254  153.2091  146.2094 H       1  UNL111      0.0479
     59 H         128.0461  151.5139  146.0388 H       1  UNL111      0.0479
     60 H         127.8607  153.0840  148.6737 H       1  UNL111      0.0283
     61 H         129.1286  151.9326  148.2213 H       1  UNL111      0.0283
     62 H         127.4692  151.3684  148.4828 H       1  UNL111      0.0283
     63 H         122.7595  149.1646  144.7948 H       1  UNL111      0.1069
     64 H         124.0626  149.2387  145.9862 H       1  UNL111      0.1069
     65 H         124.3207  149.8273  144.2952 H       1  UNL111      0.1069
     66 H         127.2960  156.9887  146.9556 H       1  UNL111      0.1069
     67 H         125.6639  156.6196  147.5252 H       1  UNL111      0.1069
     68 H         126.0398  156.6489  145.7582 H       1  UNL111      0.1069
@<TRIPOS>UNITY_ATOM_ATTR
4 1
charge 1
@<TRIPOS>BOND
     1     1    14    2
     2     2    19    1
     3     2    30    1
     4     3    22    1
     5     3    31    1
     6     4     9    1
     7     4    10    1
     8     4    11    1
     9     5     6    1
    10     5    13    1
    11     5    14   am
    12     6     7    1
    13     6     8    1
    14     7     9    1
    15     8    10    1
    16    11    12    1
    17    12    15    1
    18    13    17   ar
    19    13    18   ar
    20    14    16    1
    21    15    19   ar
    22    15    20   ar
    23    16    21    1
    24    17    25   ar
    25    18    26   ar
    26    19    23   ar
    27    20    22   ar
    28    22    24   ar
    29    23    24   ar
    30    24    28    1
    31    25    27   ar
    32    26    27   ar
    33    28    29    1
    34     4    32    1
    35     6    33    1
    36     7    34    1
    37     7    35    1
    38     8    36    1
    39     8    37    1
    40     9    38    1
    41     9    39    1
    42    10    40    1
    43    10    41    1
    44    11    42    1
    45    11    43    1
    46    12    44    1
    47    12    45    1
    48    16    46    1
    49    16    47    1
    50    17    48    1
    51    18    49    1
    52    20    50    1
    53    21    51    1
    54    21    52    1
    55    21    53    1
    56    23    54    1
    57    25    55    1
    58    26    56    1
    59    27    57    1
    60    28    58    1
    61    28    59    1
    62    29    60    1
    63    29    61    1
    64    29    62    1
    65    30    63    1
    66    30    64    1
    67    30    65    1
    68    31    66    1
    69    31    67    1
    70    31    68    1
@<TRIPOS>MOLECULE
527023
 44 45 0 0 0
SMALL
GASTEIGER

@<TRIPOS>ATOM
      1 O         118.8698  155.6844  146.5020 O.2     1  UNL111     -0.3822
      2 N         123.8111  153.3988  146.4227 N.4     1  UNL111      0.4253
      3 N         119.5146  153.4849  146.3866 N.am    1  UNL111     -0.2906
      4 C         120.9434  153.8547  146.3851 C.3     1  UNL111      0.0175
      5 C         121.6962  153.3667  145.1406 C.3     1  UNL111     -0.0332
      6 C         121.6719  153.4254  147.6658 C.3     1  UNL111     -0.0332
      7 C         123.1346  153.8586  145.1528 C.3     1  UNL111     -0.0381
      8 C         123.1120  153.9119  147.6598 C.3     1  UNL111     -0.0381
      9 C         125.2757  153.7491  146.4285 C.3     1  UNL111     -0.0456
     10 C         119.1656  152.1129  146.3913 C.3     1  UNL111     -0.0053
     11 C         118.5464  154.4960  146.4473 C.2     1  UNL111      0.1504
     12 C         117.0823  154.0638  146.4381 C.3     1  UNL111      0.0353
     13 C         119.0012  151.4306  145.1829 C.3     1  UNL111     -0.0556
     14 C         118.9625  151.4485  147.6046 C.3     1  UNL111     -0.0556
     15 C         116.1239  155.2535  146.4343 C.3     1  UNL111     -0.0413
     16 C         118.6572  150.0787  145.1900 C.3     1  UNL111     -0.0787
     17 C         118.6204  150.0962  147.6073 C.3     1  UNL111     -0.0787
     18 C         114.6734  154.7980  146.4254 C.3     1  UNL111     -0.0653
     19 C         118.4719  149.4119  146.4011 C.3     1  UNL111     -0.0844
     20 H         123.7655  152.3696  146.4441 H       1  UNL111      0.1304
     21 H         120.9999  154.9505  146.3577 H       1  UNL111      0.0863
     22 H         121.1955  153.7273  144.2341 H       1  UNL111      0.0550
     23 H         121.6968  152.2714  145.0909 H       1  UNL111      0.0550
     24 H         121.6669  152.3334  147.7662 H       1  UNL111      0.0550
     25 H         121.1549  153.8275  148.5453 H       1  UNL111      0.0550
     26 H         123.6929  153.4350  144.3116 H       1  UNL111      0.0738
     27 H         123.1964  154.9521  145.1184 H       1  UNL111      0.0738
     28 H         123.1769  155.0057  147.6508 H       1  UNL111      0.0738
     29 H         123.6534  153.5214  148.5278 H       1  UNL111      0.0738
     30 H         125.3749  154.8375  146.4091 H       1  UNL111      0.0663
     31 H         125.7349  153.2962  145.5458 H       1  UNL111      0.0663
     32 H         125.7198  153.3292  147.3348 H       1  UNL111      0.0663
     33 H         116.8921  153.4524  147.3268 H       1  UNL111      0.0745
     34 H         116.8998  153.4544  145.5463 H       1  UNL111      0.0745
     35 H         119.1182  151.9451  144.2328 H       1  UNL111      0.0993
     36 H         119.0544  151.9760  148.5504 H       1  UNL111      0.0993
     37 H         116.3113  155.8818  145.5554 H       1  UNL111      0.0369
     38 H         116.3004  155.8801  147.3167 H       1  UNL111      0.0369
     39 H         118.5175  149.5456  144.2521 H       1  UNL111      0.0890
     40 H         118.4544  149.5764  148.5485 H       1  UNL111      0.0890
     41 H         114.4563  154.1969  145.5365 H       1  UNL111      0.0262
     42 H         114.0037  155.6636  146.4220 H       1  UNL111      0.0262
     43 H         114.4460  154.1960  147.3110 H       1  UNL111      0.0262
     44 H         118.1928  148.3600  146.4046 H       1  UNL111      0.0876
@<TRIPOS>UNITY_ATOM_ATTR
2 1
charge 1
@<TRIPOS>BOND
     1     1    11    2
     2     2     7    1
     3     2     8    1
     4     2     9    1
     5     3     4    1
     6     3    10    1
     7     3    11   am
     8     4     5    1
     9     4     6    1
    10     5     7    1
    11     6     8    1
    12    10    13   ar
    13    10    14   ar
    14    11    12    1
    15    12    15    1
    16    13    16   ar
    17    14    17   ar
    18    15    18    1
    19    16    19   ar
    20    17    19   ar
    21     2    20    1
    22     4    21    1
    23     5    22    1
    24     5    23    1
    25     6    24    1
    26     6    25    1
    27     7    26    1
    28     7    27    1
    29     8    28    1
    30     8    29    1
    31     9    30    1
    32     9    31    1
    33     9    32    1
    34    12    33    1
    35    12    34    1
    36    13    35    1
    37    14    36    1
    38    15    37    1
    39    15    38    1
    40    16    39    1
    41    17    40    1
    42    18    41    1
    43    18    42    1
    44    18    43    1
    45    19    44    1
@<TRIPOS>MOLECULE
621151
 57 59 0 0 0
SMALL
GASTEIGER

@<TRIPOS>ATOM
      1 O         116.9377  156.0743  146.2259 O.2     1  UNL111     -0.3824
      2 N         121.3676  153.2451  146.6854 N.4     1  UNL111      0.4267
      3 N         117.0880  153.8080  146.5510 N.am    1  UNL111     -0.2905
      4 C         118.5328  153.9423  146.8132 C.3     1  UNL111      0.0176
      5 C         119.1447  152.8814  147.7357 C.3     1  UNL111     -0.0330
      6 C         119.3299  154.0178  145.5027 C.3     1  UNL111     -0.0330
      7 C         120.6132  153.1774  147.9977 C.3     1  UNL111     -0.0370
      8 C         120.7959  154.3084  145.7718 C.3     1  UNL111     -0.0370
      9 C         122.8624  153.4252  146.9362 C.3     1  UNL111     -0.0358
     10 C         123.6879  153.0604  145.6991 C.3     1  UNL111     -0.0312
     11 C         116.5518  152.5225  146.2939 C.3     1  UNL111     -0.0044
     12 C         116.3704  154.9795  146.2652 C.2     1  UNL111      0.1497
     13 C         114.8713  154.8411  146.0243 C.3     1  UNL111      0.0336
     14 C         125.1604  153.1050  146.0130 C.3     1  UNL111     -0.0753
     15 C         116.1986  151.6896  147.3604 C.3     1  UNL111     -0.0529
     16 C         116.3668  152.0902  144.9779 C.3     1  UNL111     -0.0552
     17 C         115.6839  150.4095  147.1183 C.3     1  UNL111     -0.0771
     18 C         114.1657  156.1873  146.0147 C.3     1  UNL111     -0.0446
     19 C         115.8416  150.8229  144.7310 C.3     1  UNL111     -0.0777
     20 C         125.8745  154.3061  145.8982 C.3     1  UNL111     -0.0811
     21 C         125.8277  151.9549  146.4574 C.3     1  UNL111     -0.0811
     22 C         115.5003  149.9877  145.7958 C.3     1  UNL111     -0.0817
     23 C         115.2574  149.5319  148.2589 C.3     1  UNL111     -0.0425
     24 C         127.2315  154.3533  146.2203 C.3     1  UNL111     -0.0857
     25 C         127.1847  152.0068  146.7787 C.3     1  UNL111     -0.0857
     26 C         127.8853  153.2050  146.6613 C.3     1  UNL111     -0.0868
     27 H         121.2516  152.3315  146.2234 H       1  UNL111      0.1323
     28 H         118.6626  154.9050  147.3280 H       1  UNL111      0.0863
     29 H         119.0581  151.8812  147.2938 H       1  UNL111      0.0550
     30 H         118.6103  152.8610  148.6925 H       1  UNL111      0.0550
     31 H         118.9257  154.8010  144.8507 H       1  UNL111      0.0550
     32 H         119.2380  153.0754  144.9481 H       1  UNL111      0.0550
     33 H         120.7555  154.1342  148.5124 H       1  UNL111      0.0741
     34 H         121.0597  152.3732  148.5919 H       1  UNL111      0.0741
     35 H         121.3567  154.2834  144.8340 H       1  UNL111      0.0741
     36 H         120.9400  155.2793  146.2585 H       1  UNL111      0.0741
     37 H         123.1237  152.7601  147.7678 H       1  UNL111      0.0751
     38 H         123.0213  154.4617  147.2554 H       1  UNL111      0.0751
     39 H         123.4817  153.7450  144.8687 H       1  UNL111      0.0589
     40 H         123.4186  152.0584  145.3421 H       1  UNL111      0.0589
     41 H         114.4347  154.2180  146.8119 H       1  UNL111      0.0734
     42 H         114.7102  154.3531  145.0583 H       1  UNL111      0.0734
     43 H         116.2972  152.0432  148.3840 H       1  UNL111      0.1008
     44 H         116.6187  152.7330  144.1384 H       1  UNL111      0.0994
     45 H         114.3120  156.7139  146.9636 H       1  UNL111      0.0319
     46 H         113.0908  156.0526  145.8596 H       1  UNL111      0.0319
     47 H         114.5482  156.8273  145.2127 H       1  UNL111      0.0319
     48 H         115.6830  150.4868  143.7086 H       1  UNL111      0.0893
     49 H         125.3915  155.2161  145.5485 H       1  UNL111      0.0893
     50 H         125.3076  151.0039  146.5508 H       1  UNL111      0.0893
     51 H         115.0741  149.0076  145.5865 H       1  UNL111      0.0891
     52 H         115.8775  149.7136  149.1430 H       1  UNL111      0.0396
     53 H         115.3655  148.4737  147.9987 H       1  UNL111      0.0396
     54 H         114.2115  149.7297  148.5125 H       1  UNL111      0.0396
     55 H         127.7848  155.2848  146.1220 H       1  UNL111      0.0876
     56 H         127.7017  151.1108  147.1156 H       1  UNL111      0.0876
     57 H         128.9445  153.2424  146.9066 H       1  UNL111      0.0874
@<TRIPOS>UNITY_ATOM_ATTR
2 1
charge 1
@<TRIPOS>BOND
     1     1    12    2
     2     2     7    1
     3     2     8    1
     4     2     9    1
     5     3     4    1
     6     3    11    1
     7     3    12   am
     8     4     5    1
     9     4     6    1
    10     5     7    1
    11     6     8    1
    12     9    10    1
    13    10    14    1
    14    11    15   ar
    15    11    16   ar
    16    12    13    1
    17    13    18    1
    18    14    20   ar
    19    14    21   ar
    20    15    17   ar
    21    16    19   ar
    22    17    22   ar
    23    17    23    1
    24    19    22   ar
    25    20    24   ar
    26    21    25   ar
    27    24    26   ar
    28    25    26   ar
    29     2    27    1
    30     4    28    1
    31     5    29    1
    32     5    30    1
    33     6    31    1
    34     6    32    1
    35     7    33    1
    36     7    34    1
    37     8    35    1
    38     8    36    1
    39     9    37    1
    40     9    38    1
    41    10    39    1
    42    10    40    1
    43    13    41    1
    44    13    42    1
    45    15    43    1
    46    16    44    1
    47    18    45    1
    48    18    46    1
    49    18    47    1
    50    19    48    1
    51    20    49    1
    52    21    50    1
    53    22    51    1
    54    23    52    1
    55    23    53    1
    56    23    54    1
    57    24    55    1
    58    25    56    1
    59    26    57    1
@<TRIPOS>MOLECULE
6425761
 57 59 0 0 0
SMALL
GASTEIGER

@<TRIPOS>ATOM
      1 O         116.5976  150.3773  146.8895 O.2     1  UNL111     -0.3824
      2 N         121.0402  153.0964  146.0334 N.4     1  UNL111      0.4270
      3 N         116.7578  152.5543  146.1834 N.am    1  UNL111     -0.2907
      4 C         118.2067  152.3790  145.9732 C.3     1  UNL111      0.0176
      5 C         118.8361  153.2704  144.8963 C.3     1  UNL111     -0.0330
      6 C         118.9806  152.5262  147.2911 C.3     1  UNL111     -0.0330
      7 C         120.3086  152.9371  144.7147 C.3     1  UNL111     -0.0369
      8 C         120.4518  152.1998  147.1016 C.3     1  UNL111     -0.0369
      9 C         122.5389  152.8821  145.8348 C.3     1  UNL111     -0.0340
     10 C         123.3965  153.3333  147.0374 C.3     1  UNL111     -0.0289
     11 C         116.2178  153.8633  146.2024 C.3     1  UNL111     -0.0054
     12 C         116.0332  151.4487  146.6543 C.2     1  UNL111      0.1497
     13 C         124.8573  153.0346  146.7376 C.3     1  UNL111     -0.0730
     14 C         123.1817  154.8043  147.4115 C.3     1  UNL111     -0.0547
     15 C         114.5311  151.6259  146.8454 C.3     1  UNL111      0.0336
     16 C         116.0206  154.5241  147.4192 C.3     1  UNL111     -0.0556
     17 C         115.8741  154.4920  145.0026 C.3     1  UNL111     -0.0556
     18 C         125.4823  151.9417  147.3599 C.3     1  UNL111     -0.0803
     19 C         125.6007  153.8035  145.8274 C.3     1  UNL111     -0.0803
     20 C         113.8232  150.3021  147.0837 C.3     1  UNL111     -0.0446
     21 C         115.4961  155.8168  147.4321 C.3     1  UNL111     -0.0787
     22 C         115.3489  155.7846  145.0199 C.3     1  UNL111     -0.0787
     23 C         126.8142  151.6298  147.0816 C.3     1  UNL111     -0.0855
     24 C         126.9327  153.4881  145.5519 C.3     1  UNL111     -0.0855
     25 C         115.1637  156.4468  146.2332 C.3     1  UNL111     -0.0844
     26 C         127.5383  152.4021  146.1778 C.3     1  UNL111     -0.0867
     27 H         120.9080  154.0737  146.3273 H       1  UNL111      0.1325
     28 H         118.3435  151.3433  145.6303 H       1  UNL111      0.0863
     29 H         118.7424  154.3306  145.1614 H       1  UNL111      0.0550
     30 H         118.3190  153.1280  143.9404 H       1  UNL111      0.0550
     31 H         118.5651  151.8623  148.0581 H       1  UNL111      0.0550
     32 H         118.8788  153.5478  147.6784 H       1  UNL111      0.0550
     33 H         120.4588  151.9067  144.3733 H       1  UNL111      0.0741
     34 H         120.7666  153.6288  143.9999 H       1  UNL111      0.0741
     35 H         120.9911  152.3865  148.0334 H       1  UNL111      0.0741
     36 H         120.6073  151.1613  146.7892 H       1  UNL111      0.0741
     37 H         122.8149  153.4558  144.9417 H       1  UNL111      0.0762
     38 H         122.6818  151.8170  145.6145 H       1  UNL111      0.0762
     39 H         123.1163  152.7425  147.9177 H       1  UNL111      0.0638
     40 H         123.2943  155.4670  146.5469 H       1  UNL111      0.0321
     41 H         123.8997  155.1236  148.1755 H       1  UNL111      0.0321
     42 H         122.1798  154.9629  147.8233 H       1  UNL111      0.0321
     43 H         114.1068  152.0987  145.9534 H       1  UNL111      0.0734
     44 H         114.3569  152.2777  147.7069 H       1  UNL111      0.0734
     45 H         116.2650  154.0415  148.3620 H       1  UNL111      0.0993
     46 H         115.9845  153.9767  144.0524 H       1  UNL111      0.0993
     47 H         124.9478  151.3215  148.0768 H       1  UNL111      0.0896
     48 H         125.1658  154.6628  145.3225 H       1  UNL111      0.0896
     49 H         113.9816  149.6158  146.2453 H       1  UNL111      0.0319
     50 H         112.7465  150.4614  147.1978 H       1  UNL111      0.0319
     51 H         114.1937  149.8148  147.9916 H       1  UNL111      0.0319
     52 H         115.3337  156.3312  148.3768 H       1  UNL111      0.0890
     53 H         115.0676  156.2724  144.0891 H       1  UNL111      0.0890
     54 H         127.2922  150.7861  147.5749 H       1  UNL111      0.0876
     55 H         127.5045  154.0938  144.8519 H       1  UNL111      0.0876
     56 H         114.7435  157.4506  146.2455 H       1  UNL111      0.0876
     57 H         128.5778  152.1613  145.9663 H       1  UNL111      0.0874
@<TRIPOS>UNITY_ATOM_ATTR
2 1
charge 1
@<TRIPOS>BOND
     1     1    12    2
     2     2     7    1
     3     2     8    1
     4     2     9    1
     5     3     4    1
     6     3    11    1
     7     3    12   am
     8     4     5    1
     9     4     6    1
    10     5     7    1
    11     6     8    1
    12     9    10    1
    13    10    13    1
    14    10    14    1
    15    11    16   ar
    16    11    17   ar
    17    12    15    1
    18    13    18   ar
    19    13    19   ar
    20    15    20    1
    21    16    21   ar
    22    17    22   ar
    23    18    23   ar
    24    19    24   ar
    25    21    25   ar
    26    22    25   ar
    27    23    26   ar
    28    24    26   ar
    29     2    27    1
    30     4    28    1
    31     5    29    1
    32     5    30    1
    33     6    31    1
    34     6    32    1
    35     7    33    1
    36     7    34    1
    37     8    35    1
    38     8    36    1
    39     9    37    1
    40     9    38    1
    41    10    39    1
    42    14    40    1
    43    14    41    1
    44    14    42    1
    45    15    43    1
    46    15    44    1
    47    16    45    1
    48    17    46    1
    49    18    47    1
    50    19    48    1
    51    20    49    1
    52    20    50    1
    53    20    51    1
    54    21    52    1
    55    22    53    1
    56    23    54    1
    57    24    55    1
    58    25    56    1
    59    26    57    1
@<TRIPOS>MOLECULE
137700357
 32 34 0 0 0
SMALL
GASTEIGER

@<TRIPOS>ATOM
      1 O         118.0129  155.2150  146.7185 O.2     1  UNL111     -0.3634
      2 N         121.5128  154.1262  146.7997 N.4     1  UNL111      0.4556
      3 N         117.2515  153.0458  146.3788 N.am    1  UNL111     -0.2577
      4 C         118.5596  152.5668  146.2570 C.3     1  UNL111      0.1095
      5 C         119.4182  153.1911  145.2619 C.3     1  UNL111      0.0833
      6 C         119.3440  152.5450  147.4839 C.3     1  UNL111      0.0833
      7 C         120.7528  153.9197  145.5417 C.3     1  UNL111      0.0649
      8 C         120.6876  153.2870  147.7062 C.3     1  UNL111      0.0649
      9 C         122.9016  153.7365  146.7072 C.3     1  UNL111      0.0661
     10 C         124.3855  153.3792  146.5810 C.3     1  UNL111      0.0776
     11 C         116.1635  152.1044  146.4346 C.3     1  UNL111      0.0015
     12 C         117.0811  154.4482  146.4630 C.2     1  UNL111      0.2054
     13 C         125.7732  153.0839  146.4440 C.2     1  UNL111     -0.0058
     14 C         116.2876  150.8489  145.8120 C.3     1  UNL111     -0.0546
     15 C         114.9767  152.3724  147.1338 C.3     1  UNL111     -0.0546
     16 C         115.8204  155.0558  146.1274 C.2     1  UNL111      0.0942
     17 C         126.7078  153.7777  147.2090 C.2     1  UNL111     -0.0052
     18 C         126.1921  152.1218  145.5284 C.2     1  UNL111     -0.0052
     19 C         115.2404  149.9222  145.8393 C.3     1  UNL111     -0.0786
     20 C         113.9287  151.4456  147.1579 C.3     1  UNL111     -0.0786
     21 C         114.0577  150.2252  146.5041 C.3     1  UNL111     -0.0844
     22 C         114.7961  155.5998  145.8258 C.2     1  UNL111      0.0016
     23 C         128.0659  153.5065  147.0591 C.2     1  UNL111     -0.0019
     24 C         127.5506  151.8515  145.3795 C.2     1  UNL111     -0.0019
     25 C         128.4868  152.5443  146.1439 C.2     1  UNL111     -0.0007
     26 C         113.4864  156.2857  145.4444 C.3     1  UNL111      0.0484
     27 H         121.4214  155.1116  147.0815 H       1  UNL111      0.1720
     28 H         117.1809  150.5713  145.2581 H       1  UNL111      0.0994
     29 H         114.8397  153.2764  147.7201 H       1  UNL111      0.0994
     30 H         115.3445  148.9644  145.3333 H       1  UNL111      0.0890
     31 H         113.0114  151.6735  147.6980 H       1  UNL111      0.0890
     32 H         113.2399  149.5076  146.5211 H       1  UNL111      0.0876
@<TRIPOS>UNITY_ATOM_ATTR
2 1
charge 1
@<TRIPOS>BOND
     1     1    12    2
     2     2     7    1
     3     2     8    1
     4     2     9    1
     5     3     4    1
     6     3    11    1
     7     3    12   am
     8     4     5    1
     9     4     6    1
    10     5     7    1
    11     6     8    1
    12     9    10    1
    13    10    13    1
    14    11    14   ar
    15    11    15   ar
    16    12    16    1
    17    13    17    2
    18    13    18    1
    19    14    19   ar
    20    15    20   ar
    21    16    22    2
    22    17    23    1
    23    18    24    2
    24    19    21   ar
    25    20    21   ar
    26    22    26    1
    27    23    25    2
    28    24    25    1
    29     2    27    1
    30    14    28    1
    31    15    29    1
    32    19    30    1
    33    20    31    1
    34    21    32    1
@<TRIPOS>MOLECULE
165361473
 64 68 0 0 0
SMALL
GASTEIGER

@<TRIPOS>ATOM
      1 BR        128.1240  152.2634  146.4827 Br      1  UNL111     -0.0558
      2 O         123.1671  150.9808  145.7865 O.2     1  UNL111     -0.5736
      3 O         126.6529  155.0922  146.6696 O.2     1  UNL111     -0.5697
      4 O         116.3023  155.4009  145.5334 O.2     1  UNL111     -0.3824
      5 N         119.7347  153.4117  146.8210 N.4     1  UNL111      0.4269
      6 N         115.4936  153.4429  146.4257 N.am    1  UNL111     -0.2907
      7 C         116.8571  152.9779  146.7787 C.3     1  UNL111      0.0176
      8 C         117.7280  152.7790  145.5261 C.3     1  UNL111     -0.0330
      9 C         117.5249  153.8845  147.8246 C.3     1  UNL111     -0.0330
     10 C         119.1486  152.3819  145.8805 C.3     1  UNL111     -0.0370
     11 C         118.9542  153.4631  148.1129 C.3     1  UNL111     -0.0370
     12 C         121.2192  153.1836  147.0764 C.3     1  UNL111     -0.0328
     13 C         122.0651  153.6841  145.9006 C.3     1  UNL111     -0.0130
     14 C         123.5196  153.3714  146.0971 C.3     1  UNL111      0.0052
     15 C         124.4888  154.3397  146.3416 C.3     1  UNL111      0.0134
     16 C         123.9863  152.0613  146.0200 C.3     1  UNL111      0.0597
     17 C         125.3337  151.7184  146.1395 C.3     1  UNL111      0.0296
     18 C         124.3665  155.8186  146.4125 C.3     1  UNL111      0.0159
     19 C         125.8426  154.0000  146.4687 C.3     1  UNL111      0.0765
     20 C         114.4311  152.5053  146.5898 C.3     1  UNL111     -0.0054
     21 C         125.4855  150.2636  145.9011 C.3     1  UNL111      0.0195
     22 C         115.3269  154.7163  145.8599 C.2     1  UNL111      0.1497
     23 C         126.2932  152.6926  146.3562 C.3     1  UNL111      0.0738
     24 C         125.7399  156.1629  146.9829 C.3     1  UNL111      0.0446
     25 C         124.0248  149.8362  146.0253 C.3     1  UNL111      0.0442
     26 C         113.9109  155.2683  145.7278 C.3     1  UNL111      0.0336
     27 C         113.5633  152.2121  145.5312 C.3     1  UNL111     -0.0556
     28 C         114.2718  151.8231  147.8035 C.3     1  UNL111     -0.0556
     29 C         113.8993  156.7886  145.6699 C.3     1  UNL111     -0.0446
     30 C         112.5413  151.2730  145.6906 C.3     1  UNL111     -0.0787
     31 C         113.2471  150.8871  147.9630 C.3     1  UNL111     -0.0787
     32 C         112.3816  150.6139  146.9069 C.3     1  UNL111     -0.0844
     33 H         119.6390  154.3373  146.3737 H       1  UNL111      0.1323
     34 H         116.7777  151.9837  147.2390 H       1  UNL111      0.0863
     35 H         117.7696  153.6843  144.9125 H       1  UNL111      0.0550
     36 H         117.2814  152.0055  144.8892 H       1  UNL111      0.0550
     37 H         116.9431  153.8630  148.7542 H       1  UNL111      0.0550
     38 H         117.5364  154.9309  147.5031 H       1  UNL111      0.0550
     39 H         119.1909  151.4082  146.3813 H       1  UNL111      0.0741
     40 H         119.7649  152.3498  144.9785 H       1  UNL111      0.0741
     41 H         119.4384  154.1973  148.7653 H       1  UNL111      0.0741
     42 H         119.0087  152.4721  148.5772 H       1  UNL111      0.0741
     43 H         121.3479  152.1177  147.2910 H       1  UNL111      0.0755
     44 H         121.4843  153.7487  147.9779 H       1  UNL111      0.0755
     45 H         121.9166  154.7636  145.7786 H       1  UNL111      0.0628
     46 H         121.7454  153.2338  144.9544 H       1  UNL111      0.0628
     47 H         123.5608  156.1655  147.0645 H       1  UNL111      0.0666
     48 H         124.2420  156.2333  145.4070 H       1  UNL111      0.0666
     49 H         126.1148  149.7518  146.6335 H       1  UNL111      0.0675
     50 H         125.8624  150.0826  144.8892 H       1  UNL111      0.0675
     51 H         126.1237  157.1022  146.5718 H       1  UNL111      0.1161
     52 H         125.7010  156.2623  148.0752 H       1  UNL111      0.1161
     53 H         123.7739  149.0434  145.3130 H       1  UNL111      0.1160
     54 H         123.8065  149.4651  147.0348 H       1  UNL111      0.1160
     55 H         113.3034  154.9493  146.5804 H       1  UNL111      0.0734
     56 H         113.4663  154.8852  144.8052 H       1  UNL111      0.0734
     57 H         113.6884  152.6742  144.5557 H       1  UNL111      0.0993
     58 H         114.9101  152.0380  148.6556 H       1  UNL111      0.0993
     59 H         114.3671  157.2182  146.5619 H       1  UNL111      0.0319
     60 H         112.8713  157.1590  145.6085 H       1  UNL111      0.0319
     61 H         114.4450  157.1553  144.7942 H       1  UNL111      0.0319
     62 H         111.8723  151.0503  144.8621 H       1  UNL111      0.0890
     63 H         113.1156  150.3767  148.9144 H       1  UNL111      0.0890
     64 H         111.5819  149.8867  147.0308 H       1  UNL111      0.0876
@<TRIPOS>UNITY_ATOM_ATTR
5 1
charge 1
@<TRIPOS>BOND
     1     1    23    1
     2     2    16    1
     3     2    25    1
     4     3    19    1
     5     3    24    1
     6     4    22    2
     7     5    10    1
     8     5    11    1
     9     5    12    1
    10     6     7    1
    11     6    20    1
    12     6    22   am
    13     7     8    1
    14     7     9    1
    15     8    10    1
    16     9    11    1
    17    12    13    1
    18    13    14    1
    19    14    15   ar
    20    14    16   ar
    21    15    18    1
    22    15    19   ar
    23    16    17   ar
    24    17    21    1
    25    17    23   ar
    26    18    24    1
    27    19    23   ar
    28    20    27   ar
    29    20    28   ar
    30    21    25    1
    31    22    26    1
    32    26    29    1
    33    27    30   ar
    34    28    31   ar
    35    30    32   ar
    36    31    32   ar
    37     5    33    1
    38     7    34    1
    39     8    35    1
    40     8    36    1
    41     9    37    1
    42     9    38    1
    43    10    39    1
    44    10    40    1
    45    11    41    1
    46    11    42    1
    47    12    43    1
    48    12    44    1
    49    13    45    1
    50    13    46    1
    51    18    47    1
    52    18    48    1
    53    21    49    1
    54    21    50    1
    55    24    51    1
    56    24    52    1
    57    25    53    1
    58    25    54    1
    59    26    55    1
    60    26    56    1
    61    27    57    1
    62    28    58    1
    63    29    59    1
    64    29    60    1
    65    29    61    1
    66    30    62    1
    67    31    63    1
    68    32    64    1
@<TRIPOS>MOLECULE
621150
 57 59 0 0 0
SMALL
GASTEIGER

@<TRIPOS>ATOM
      1 O         116.7273  150.2967  146.9408 O.2     1  UNL111     -0.3824
      2 N         121.3661  152.6782  146.1793 N.4     1  UNL111      0.4267
      3 N         117.0654  152.5298  146.5644 N.am    1  UNL111     -0.2898
      4 C         118.5171  152.3519  146.7466 C.3     1  UNL111      0.0178
      5 C         119.1716  151.7457  145.4969 C.3     1  UNL111     -0.0330
      6 C         119.2913  153.6043  147.1832 C.3     1  UNL111     -0.0330
      7 C         120.6324  151.4212  145.7550 C.3     1  UNL111     -0.0370
      8 C         120.7569  153.2795  147.4270 C.3     1  UNL111     -0.0370
      9 C         122.8605  152.4044  146.3302 C.3     1  UNL111     -0.0358
     10 C         116.5583  153.8031  146.2094 C.3     1  UNL111     -0.0027
     11 C         123.6738  153.6996  146.2507 C.3     1  UNL111     -0.0312
     12 C         116.2455  151.3974  146.6591 C.2     1  UNL111      0.1498
     13 C         116.0042  154.6604  147.1779 C.3     1  UNL111     -0.0542
     14 C         114.7592  151.5735  146.3700 C.3     1  UNL111      0.0336
     15 C         125.1488  153.4082  146.3371 C.3     1  UNL111     -0.0753
     16 C         116.6369  154.2059  144.8694 C.3     1  UNL111     -0.0545
     17 C         115.5199  155.9125  146.7665 C.3     1  UNL111     -0.0760
     18 C         115.8536  154.2817  148.6260 C.3     1  UNL111     -0.0364
     19 C         116.1608  155.4575  144.4830 C.3     1  UNL111     -0.0783
     20 C         113.9993  150.2589  146.4383 C.3     1  UNL111     -0.0446
     21 C         125.7973  153.3942  147.5801 C.3     1  UNL111     -0.0811
     22 C         125.8853  153.1151  145.1806 C.3     1  UNL111     -0.0811
     23 C         115.6035  156.3100  145.4313 C.3     1  UNL111     -0.0834
     24 C         127.1578  153.0956  147.6625 C.3     1  UNL111     -0.0857
     25 C         127.2455  152.8159  145.2680 C.3     1  UNL111     -0.0857
     26 C         127.8807  152.8055  146.5077 C.3     1  UNL111     -0.0868
     27 H         121.2640  153.3585  145.4125 H       1  UNL111      0.1323
     28 H         118.6287  151.6198  147.5596 H       1  UNL111      0.0863
     29 H         119.0936  152.4401  144.6517 H       1  UNL111      0.0550
     30 H         118.6537  150.8294  145.1920 H       1  UNL111      0.0550
     31 H         118.8636  154.0125  148.1058 H       1  UNL111      0.0550
     32 H         119.2225  154.3917  146.4226 H       1  UNL111      0.0550
     33 H         120.7579  150.6779  146.5502 H       1  UNL111      0.0741
     34 H         121.1069  151.0593  144.8369 H       1  UNL111      0.0741
     35 H         121.3059  154.1946  147.6630 H       1  UNL111      0.0741
     36 H         120.8853  152.5578  148.2414 H       1  UNL111      0.0741
     37 H         123.1457  151.7359  145.5094 H       1  UNL111      0.0751
     38 H         123.0051  151.8731  147.2779 H       1  UNL111      0.0751
     39 H         123.3998  154.3911  147.0551 H       1  UNL111      0.0589
     40 H         123.4594  154.2267  145.3124 H       1  UNL111      0.0589
     41 H         114.6376  151.9995  145.3688 H       1  UNL111      0.0734
     42 H         114.3297  152.2645  147.1003 H       1  UNL111      0.0734
     43 H         117.0365  153.5395  144.1106 H       1  UNL111      0.0996
     44 H         115.0639  156.5888  147.4885 H       1  UNL111      0.0905
     45 H         116.5545  153.4975  148.9253 H       1  UNL111      0.0411
     46 H         114.8349  153.9310  148.8175 H       1  UNL111      0.0411
     47 H         116.0545  155.1456  149.2691 H       1  UNL111      0.0411
     48 H         116.2052  155.7633  143.4402 H       1  UNL111      0.0891
     49 H         114.3905  149.5403  145.7105 H       1  UNL111      0.0319
     50 H         112.9386  150.4207  146.2225 H       1  UNL111      0.0319
     51 H         114.0808  149.8085  147.4330 H       1  UNL111      0.0319
     52 H         125.2596  153.6246  148.4973 H       1  UNL111      0.0893
     53 H         125.4173  153.1245  144.1986 H       1  UNL111      0.0893
     54 H         115.2173  157.2818  145.1302 H       1  UNL111      0.0879
     55 H         127.6601  153.0945  148.6276 H       1  UNL111      0.0876
     56 H         127.8162  152.5961  144.3681 H       1  UNL111      0.0876
     57 H         128.9425  152.5780  146.5733 H       1  UNL111      0.0874
@<TRIPOS>UNITY_ATOM_ATTR
2 1
charge 1
@<TRIPOS>BOND
     1     1    12    2
     2     2     7    1
     3     2     8    1
     4     2     9    1
     5     3     4    1
     6     3    10    1
     7     3    12   am
     8     4     5    1
     9     4     6    1
    10     5     7    1
    11     6     8    1
    12     9    11    1
    13    10    13   ar
    14    10    16   ar
    15    11    15    1
    16    12    14    1
    17    13    17   ar
    18    13    18    1
    19    14    20    1
    20    15    21   ar
    21    15    22   ar
    22    16    19   ar
    23    17    23   ar
    24    19    23   ar
    25    21    24   ar
    26    22    25   ar
    27    24    26   ar
    28    25    26   ar
    29     2    27    1
    30     4    28    1
    31     5    29    1
    32     5    30    1
    33     6    31    1
    34     6    32    1
    35     7    33    1
    36     7    34    1
    37     8    35    1
    38     8    36    1
    39     9    37    1
    40     9    38    1
    41    11    39    1
    42    11    40    1
    43    14    41    1
    44    14    42    1
    45    16    43    1
    46    17    44    1
    47    18    45    1
    48    18    46    1
    49    18    47    1
    50    19    48    1
    51    20    49    1
    52    20    50    1
    53    20    51    1
    54    21    52    1
    55    22    53    1
    56    23    54    1
    57    24    55    1
    58    25    56    1
    59    26    57    1
@<TRIPOS>MOLECULE
62296
 54 56 0 0 0
SMALL
GASTEIGER

@<TRIPOS>ATOM
      1 S         126.0799  152.2634  147.5177 S.3     1  UNL111     -0.1518
      2 O         116.6866  150.3946  146.8526 O.2     1  UNL111     -0.3824
      3 N         121.5100  152.8410  146.0643 N.4     1  UNL111      0.4272
      4 N         117.2318  152.6066  146.5738 N.am    1  UNL111     -0.2900
      5 C         118.6717  152.2773  146.4736 C.3     1  UNL111      0.0193
      6 C         119.2592  152.4272  145.0518 C.3     1  UNL111     -0.0305
      7 C         119.5142  153.0471  147.5024 C.3     1  UNL111     -0.0323
      8 C         120.7392  152.0293  145.0429 C.3     1  UNL111     -0.0351
      9 C         120.9670  152.6148  147.4571 C.3     1  UNL111     -0.0367
     10 C         118.5121  151.5695  144.0250 C.3     1  UNL111     -0.0559
     11 C         123.0080  152.5517  145.9681 C.3     1  UNL111     -0.0332
     12 C         123.8393  153.6559  146.6328 C.3     1  UNL111     -0.0205
     13 C         116.8376  153.9686  146.5625 C.3     1  UNL111     -0.0052
     14 C         116.3125  151.5667  146.7728 C.2     1  UNL111      0.1498
     15 C         114.8363  151.9406  146.8598 C.3     1  UNL111      0.0336
     16 C         125.3063  153.3926  146.4850 C.3     1  UNL111     -0.0375
     17 C         116.5540  154.6176  147.7695 C.3     1  UNL111     -0.0555
     18 C         116.7321  154.6666  145.3572 C.3     1  UNL111     -0.0555
     19 C         113.9359  150.7199  146.9591 C.3     1  UNL111     -0.0446
     20 C         116.1847  155.9629  147.7693 C.3     1  UNL111     -0.0787
     21 C         116.3566  156.0109  145.3601 C.3     1  UNL111     -0.0787
     22 C         126.1971  153.9629  145.5980 C.3     1  UNL111     -0.0655
     23 C         116.0883  156.6589  146.5652 C.3     1  UNL111     -0.0844
     24 C         127.5205  153.4613  145.7672 C.3     1  UNL111     -0.0698
     25 C         127.5963  152.5298  146.7780 C.3     1  UNL111     -0.0470
     26 H         121.3800  153.8343  145.8234 H       1  UNL111      0.1326
     27 H         118.7844  151.2178  146.7396 H       1  UNL111      0.0875
     28 H         119.1909  153.4749  144.7350 H       1  UNL111      0.0599
     29 H         119.1197  152.8742  148.5111 H       1  UNL111      0.0552
     30 H         119.4598  154.1275  147.3203 H       1  UNL111      0.0552
     31 H         120.8879  150.9702  145.2847 H       1  UNL111      0.0753
     32 H         121.1830  152.2411  144.0636 H       1  UNL111      0.0753
     33 H         121.5544  153.2175  148.1540 H       1  UNL111      0.0741
     34 H         121.0920  151.5534  147.6986 H       1  UNL111      0.0741
     35 H         118.5509  150.5079  144.2921 H       1  UNL111      0.0311
     36 H         118.9582  151.6827  143.0309 H       1  UNL111      0.0311
     37 H         117.4604  151.8587  143.9447 H       1  UNL111      0.0311
     38 H         123.2536  152.4990  144.9008 H       1  UNL111      0.0756
     39 H         123.1778  151.5650  146.4138 H       1  UNL111      0.0756
     40 H         123.5955  153.7489  147.6967 H       1  UNL111      0.0626
     41 H         123.5958  154.6230  146.1748 H       1  UNL111      0.0626
     42 H         114.5591  152.5153  145.9699 H       1  UNL111      0.0734
     43 H         114.6769  152.5618  147.7463 H       1  UNL111      0.0734
     44 H         116.6182  154.0849  148.7152 H       1  UNL111      0.0993
     45 H         116.8999  154.1721  144.4055 H       1  UNL111      0.0993
     46 H         114.0577  150.0689  146.0872 H       1  UNL111      0.0319
     47 H         112.8864  151.0249  147.0151 H       1  UNL111      0.0319
     48 H         114.1681  150.1318  147.8533 H       1  UNL111      0.0319
     49 H         115.9604  156.4679  148.7064 H       1  UNL111      0.0890
     50 H         116.2539  156.5515  144.4216 H       1  UNL111      0.0890
     51 H         125.9287  154.7134  144.8632 H       1  UNL111      0.0940
     52 H         115.7860  157.7044  146.5648 H       1  UNL111      0.0876
     53 H         128.3788  153.7735  145.1829 H       1  UNL111      0.0922
     54 H         128.4738  151.9976  147.1221 H       1  UNL111      0.1086
@<TRIPOS>UNITY_ATOM_ATTR
3 1
charge 1
@<TRIPOS>BOND
     1     1    16   ar
     2     1    25   ar
     3     2    14    2
     4     3     8    1
     5     3     9    1
     6     3    11    1
     7     4     5    1
     8     4    13    1
     9     4    14   am
    10     5     6    1
    11     5     7    1
    12     6     8    1
    13     6    10    1
    14     7     9    1
    15    11    12    1
    16    12    16    1
    17    13    17   ar
    18    13    18   ar
    19    14    15    1
    20    15    19    1
    21    16    22   ar
    22    17    20   ar
    23    18    21   ar
    24    20    23   ar
    25    21    23   ar
    26    22    24   ar
    27    24    25   ar
    28     3    26    1
    29     5    27    1
    30     6    28    1
    31     7    29    1
    32     7    30    1
    33     8    31    1
    34     8    32    1
    35     9    33    1
    36     9    34    1
    37    10    35    1
    38    10    36    1
    39    10    37    1
    40    11    38    1
    41    11    39    1
    42    12    40    1
    43    12    41    1
    44    15    42    1
    45    15    43    1
    46    17    44    1
    47    18    45    1
    48    19    46    1
    49    19    47    1
    50    19    48    1
    51    20    49    1
    52    21    50    1
    53    22    51    1
    54    23    52    1
    55    24    53    1
    56    25    54    1
@<TRIPOS>MOLECULE
527012
 58 60 0 0 0
SMALL
GASTEIGER

@<TRIPOS>ATOM
      1 O         116.9755  156.6325  146.2064 O.2     1  UNL111     -0.3824
      2 O         115.3831  149.1662  146.6558 O.2     1  UNL111     -0.5835
      3 N         121.5427  153.5805  146.8170 N.4     1  UNL111      0.4267
      4 N         117.3391  154.3825  146.4799 N.am    1  UNL111     -0.2901
      5 C         118.8033  154.5690  146.5857 C.3     1  UNL111      0.0176
      6 C         119.3765  154.0712  147.9203 C.3     1  UNL111     -0.0330
      7 C         119.5559  153.9562  145.3978 C.3     1  UNL111     -0.0330
      8 C         120.8826  154.2720  147.9946 C.3     1  UNL111     -0.0370
      9 C         121.0537  154.1711  145.5125 C.3     1  UNL111     -0.0370
     10 C         123.0623  153.5999  146.9518 C.3     1  UNL111     -0.0358
     11 C         123.7264  152.6183  145.9797 C.3     1  UNL111     -0.0312
     12 C         116.8237  153.0642  146.4917 C.3     1  UNL111      0.0002
     13 C         116.5096  155.4949  146.2832 C.2     1  UNL111      0.1497
     14 C         125.2243  152.6403  146.1299 C.3     1  UNL111     -0.0753
     15 C         115.0095  155.2288  146.1735 C.3     1  UNL111      0.0336
     16 C         116.4620  152.4667  147.6983 C.3     1  UNL111     -0.0395
     17 C         116.6717  152.3645  145.2915 C.3     1  UNL111     -0.0395
     18 C         114.1966  156.4975  145.9828 C.3     1  UNL111     -0.0446
     19 C         125.9851  153.6126  145.4640 C.3     1  UNL111     -0.0811
     20 C         125.8748  151.7066  146.9471 C.3     1  UNL111     -0.0811
     21 C         115.9818  151.1566  147.7009 C.3     1  UNL111     -0.0234
     22 C         116.1934  151.0516  145.3002 C.3     1  UNL111     -0.0234
     23 C         115.8516  150.4407  146.5068 C.3     1  UNL111      0.0350
     24 C         127.3715  153.6478  145.6128 C.3     1  UNL111     -0.0857
     25 C         127.2624  151.7452  147.0923 C.3     1  UNL111     -0.0857
     26 C         128.0093  152.7152  146.4270 C.3     1  UNL111     -0.0868
     27 C         115.1730  148.4110  145.4680 C.3     1  UNL111      0.0293
     28 H         121.2611  152.5894  146.8503 H       1  UNL111      0.1323
     29 H         119.0061  155.6473  146.5526 H       1  UNL111      0.0863
     30 H         119.1629  153.0057  148.0618 H       1  UNL111      0.0550
     31 H         118.8962  154.6026  148.7508 H       1  UNL111      0.0550
     32 H         119.1944  154.3943  144.4599 H       1  UNL111      0.0550
     33 H         119.3694  152.8777  145.3357 H       1  UNL111      0.0550
     34 H         121.1633  155.3306  147.9596 H       1  UNL111      0.0741
     35 H         121.2800  153.8190  148.9089 H       1  UNL111      0.0741
     36 H         121.5562  153.6539  144.6923 H       1  UNL111      0.0741
     37 H         121.3281  155.2313  145.4991 H       1  UNL111      0.0741
     38 H         123.2897  153.3072  147.9840 H       1  UNL111      0.0751
     39 H         123.3909  154.6337  146.7985 H       1  UNL111      0.0751
     40 H         123.4871  152.8587  144.9385 H       1  UNL111      0.0589
     41 H         123.3482  151.6023  146.1493 H       1  UNL111      0.0589
     42 H         114.6705  154.7281  147.0865 H       1  UNL111      0.0734
     43 H         114.8259  154.5673  145.3208 H       1  UNL111      0.0734
     44 H         116.5370  153.0096  148.6366 H       1  UNL111      0.1028
     45 H         116.9173  152.8329  144.3415 H       1  UNL111      0.1028
     46 H         114.3354  157.1849  146.8233 H       1  UNL111      0.0319
     47 H         113.1312  156.2560  145.9112 H       1  UNL111      0.0319
     48 H         114.4904  157.0191  145.0663 H       1  UNL111      0.0319
     49 H         125.5142  154.3452  144.8121 H       1  UNL111      0.0893
     50 H         125.3182  150.9318  147.4699 H       1  UNL111      0.0893
     51 H         115.6945  150.6879  148.6401 H       1  UNL111      0.1120
     52 H         116.0924  150.5365  144.3501 H       1  UNL111      0.1120
     53 H         127.9592  154.3978  145.0878 H       1  UNL111      0.0876
     54 H         127.7669  151.0132  147.7195 H       1  UNL111      0.0876
     55 H         129.0913  152.7392  146.5369 H       1  UNL111      0.0874
     56 H         114.7667  147.4375  145.7576 H       1  UNL111      0.1069
     57 H         116.1184  148.2364  144.9436 H       1  UNL111      0.1069
     58 H         114.4422  148.8974  144.8135 H       1  UNL111      0.1069
@<TRIPOS>UNITY_ATOM_ATTR
3 1
charge 1
@<TRIPOS>BOND
     1     1    13    2
     2     2    23    1
     3     2    27    1
     4     3     8    1
     5     3     9    1
     6     3    10    1
     7     4     5    1
     8     4    12    1
     9     4    13   am
    10     5     6    1
    11     5     7    1
    12     6     8    1
    13     7     9    1
    14    10    11    1
    15    11    14    1
    16    12    16   ar
    17    12    17   ar
    18    13    15    1
    19    14    19   ar
    20    14    20   ar
    21    15    18    1
    22    16    21   ar
    23    17    22   ar
    24    19    24   ar
    25    20    25   ar
    26    21    23   ar
    27    22    23   ar
    28    24    26   ar
    29    25    26   ar
    30     3    28    1
    31     5    29    1
    32     6    30    1
    33     6    31    1
    34     7    32    1
    35     7    33    1
    36     8    34    1
    37     8    35    1
    38     9    36    1
    39     9    37    1
    40    10    38    1
    41    10    39    1
    42    11    40    1
    43    11    41    1
    44    15    42    1
    45    15    43    1
    46    16    44    1
    47    17    45    1
    48    18    46    1
    49    18    47    1
    50    18    48    1
    51    19    49    1
    52    20    50    1
    53    21    51    1
    54    22    52    1
    55    24    53    1
    56    25    54    1
    57    26    55    1
    58    27    56    1
    59    27    57    1
    60    27    58    1
@<TRIPOS>MOLECULE
23635044
 56 58 0 0 0
SMALL
GASTEIGER

@<TRIPOS>ATOM
      1 O         117.3850  150.8395  146.8919 O.2     1  UNL111     -0.3817
      2 O         112.6255  151.4037  145.5815 O.co2   1  UNL111     -0.5703
      3 O         112.6819  151.9198  147.8120 O.co2   1  UNL111     -0.5703
      4 N         122.0416  153.0292  146.0612 N.4     1  UNL111      0.4267
      5 N         117.7327  152.9801  146.1451 N.am    1  UNL111     -0.2903
      6 C         119.1523  152.6530  145.9618 C.3     1  UNL111      0.0176
      7 C         119.9124  152.7401  147.2929 C.3     1  UNL111     -0.0330
      8 C         119.8948  153.4452  144.8820 C.3     1  UNL111     -0.0330
      9 C         121.3314  152.2300  147.1356 C.3     1  UNL111     -0.0370
     10 C         121.3171  152.9318  144.7326 C.3     1  UNL111     -0.0370
     11 C         123.5046  152.6386  145.9056 C.3     1  UNL111     -0.0358
     12 C         124.3476  153.1368  147.0829 C.3     1  UNL111     -0.0312
     13 C         117.3359  154.3411  146.2044 C.3     1  UNL111     -0.0053
     14 C         116.9031  151.9419  146.6115 C.2     1  UNL111      0.1534
     15 C         115.4208  152.2463  146.7345 C.3     1  UNL111      0.0489
     16 C         125.8115  152.8808  146.8342 C.3     1  UNL111     -0.0753
     17 C         117.0718  154.9434  147.4393 C.3     1  UNL111     -0.0556
     18 C         117.2001  155.0854  145.0293 C.3     1  UNL111     -0.0556
     19 C         114.5832  150.9792  146.8038 C.3     1  UNL111      0.0142
     20 C         126.3877  151.6532  147.1900 C.3     1  UNL111     -0.0811
     21 C         126.6075  153.8528  146.2119 C.3     1  UNL111     -0.0811
     22 C         116.6938  156.2854  147.4975 C.3     1  UNL111     -0.0787
     23 C         116.8219  156.4278  145.0901 C.3     1  UNL111     -0.0787
     24 C         116.5739  157.0280  146.3239 C.3     1  UNL111     -0.0844
     25 C         127.7361  151.4055  146.9300 C.3     1  UNL111     -0.0857
     26 C         127.9554  153.6006  145.9534 C.3     1  UNL111     -0.0857
     27 C         113.1480  151.4722  146.7280 C.2     1  UNL111      0.0251
     28 C         128.5187  152.3778  146.3113 C.3     1  UNL111     -0.0868
     29 H         122.0178  154.0201  146.3415 H       1  UNL111      0.1323
     30 H         119.1868  151.6033  145.6362 H       1  UNL111      0.0863
     31 H         119.4077  152.1515  148.0678 H       1  UNL111      0.0550
     32 H         119.9291  153.7764  147.6538 H       1  UNL111      0.0550
     33 H         119.9275  154.5130  145.1293 H       1  UNL111      0.0550
     34 H         119.3790  153.3475  143.9199 H       1  UNL111      0.0550
     35 H         121.8798  152.3642  148.0714 H       1  UNL111      0.0741
     36 H         121.3621  151.1750  146.8419 H       1  UNL111      0.0741
     37 H         121.3485  151.8841  144.4131 H       1  UNL111      0.0741
     38 H         121.8667  153.5487  144.0140 H       1  UNL111      0.0741
     39 H         123.8562  153.0996  144.9749 H       1  UNL111      0.0751
     40 H         123.5470  151.5492  145.7919 H       1  UNL111      0.0751
     41 H         124.0553  152.6433  148.0165 H       1  UNL111      0.0589
     42 H         124.1852  154.2103  147.2419 H       1  UNL111      0.0589
     43 H         115.1103  152.8519  145.8745 H       1  UNL111      0.0784
     44 H         115.2665  152.8387  147.6432 H       1  UNL111      0.0784
     45 H         117.1387  154.3723  148.3622 H       1  UNL111      0.0993
     46 H         117.3337  154.6173  144.0584 H       1  UNL111      0.0993
     47 H         114.7571  150.4329  147.7372 H       1  UNL111      0.0611
     48 H         114.8084  150.3027  145.9717 H       1  UNL111      0.0611
     49 H         125.8008  150.8793  147.6806 H       1  UNL111      0.0893
     50 H         126.1944  154.8185  145.9285 H       1  UNL111      0.0893
     51 H         116.4638  156.7435  148.4566 H       1  UNL111      0.0890
     52 H         116.6853  156.9971  144.1740 H       1  UNL111      0.0890
     53 H         116.2517  158.0657  146.3694 H       1  UNL111      0.0876
     54 H         128.1811  150.4545  147.2146 H       1  UNL111      0.0876
     55 H         128.5715  154.3599  145.4768 H       1  UNL111      0.0876
     56 H         129.5706  152.1845  146.1136 H       1  UNL111      0.0874
@<TRIPOS>UNITY_ATOM_ATTR
2 1
charge -1
4 1
charge 1
@<TRIPOS>BOND
     1     1    14    2
     2     2    27   ar
     3     3    27   ar
     4     4     9    1
     5     4    10    1
     6     4    11    1
     7     5     6    1
     8     5    13    1
     9     5    14   am
    10     6     7    1
    11     6     8    1
    12     7     9    1
    13     8    10    1
    14    11    12    1
    15    12    16    1
    16    13    17   ar
    17    13    18   ar
    18    14    15    1
    19    15    19    1
    20    16    20   ar
    21    16    21   ar
    22    17    22   ar
    23    18    23   ar
    24    19    27    1
    25    20    25   ar
    26    21    26   ar
    27    22    24   ar
    28    23    24   ar
    29    25    28   ar
    30    26    28   ar
    31     4    29    1
    32     6    30    1
    33     7    31    1
    34     7    32    1
    35     8    33    1
    36     8    34    1
    37     9    35    1
    38     9    36    1
    39    10    37    1
    40    10    38    1
    41    11    39    1
    42    11    40    1
    43    12    41    1
    44    12    42    1
    45    15    43    1
    46    15    44    1
    47    17    45    1
    48    18    46    1
    49    19    47    1
    50    19    48    1
    51    20    49    1
    52    21    50    1
    53    22    51    1
    54    23    52    1
    55    24    53    1
    56    25    54    1
    57    26    55    1
    58    28    56    1
@<TRIPOS>MOLECULE
137700074
 59 62 0 0 0
SMALL
GASTEIGER

@<TRIPOS>ATOM
      1 O         118.3075  155.0638  146.9272 O.2     1  UNL111     -0.3683
      2 N         121.9459  153.1110  146.0630 N.4     1  UNL111      0.4267
      3 N         117.6813  152.9563  146.2131 N.am    1  UNL111     -0.2827
      4 C         119.0889  152.5430  146.0039 C.3     1  UNL111      0.0193
      5 C         119.8878  152.5561  147.3181 C.3     1  UNL111     -0.0327
      6 C         119.7740  153.3619  144.8994 C.3     1  UNL111     -0.0327
      7 C         121.3431  152.1884  147.0971 C.3     1  UNL111     -0.0370
      8 C         121.2329  152.9772  144.7358 C.3     1  UNL111     -0.0370
      9 C         123.4477  152.9158  145.8991 C.3     1  UNL111     -0.0358
     10 C         117.4197  154.2829  146.5773 C.2     1  UNL111      0.1820
     11 C         124.2246  153.5312  147.0665 C.3     1  UNL111     -0.0312
     12 C         116.6959  151.9169  146.2481 C.3     1  UNL111     -0.0034
     13 C         116.0372  154.8036  146.4612 C.2     1  UNL111      0.0122
     14 C         115.4936  155.7619  147.4691 C.3     1  UNL111     -0.0153
     15 C         114.0079  155.8000  147.1113 C.3     1  UNL111     -0.0476
     16 C         113.9133  155.3639  145.6493 C.3     1  UNL111     -0.0405
     17 C         115.1841  154.6064  145.4468 C.2     1  UNL111     -0.0798
     18 C         125.7078  153.3751  146.8530 C.3     1  UNL111     -0.0753
     19 C         115.7539  151.8540  147.2846 C.3     1  UNL111     -0.0553
     20 C         116.6758  150.9191  145.2632 C.3     1  UNL111     -0.0553
     21 C         114.8088  150.8258  147.3285 C.3     1  UNL111     -0.0787
     22 C         115.7282  149.8928  145.3065 C.3     1  UNL111     -0.0787
     23 C         126.3766  152.2370  147.3255 C.3     1  UNL111     -0.0811
     24 C         126.4309  154.3469  146.1473 C.3     1  UNL111     -0.0811
     25 C         114.7958  149.8465  146.3392 C.3     1  UNL111     -0.0844
     26 C         127.7438  152.0766  147.0970 C.3     1  UNL111     -0.0857
     27 C         127.7979  154.1820  145.9204 C.3     1  UNL111     -0.0857
     28 C         128.4532  153.0475  146.3937 C.3     1  UNL111     -0.0868
     29 H         121.7990  154.0821  146.3827 H       1  UNL111      0.1323
     30 H         119.1047  151.5005  145.6623 H       1  UNL111      0.0867
     31 H         119.4382  151.8511  148.0282 H       1  UNL111      0.0551
     32 H         119.8526  153.5358  147.8046 H       1  UNL111      0.0551
     33 H         119.7241  154.4364  145.1039 H       1  UNL111      0.0551
     34 H         119.2468  153.2101  143.9495 H       1  UNL111      0.0551
     35 H         121.9030  152.3070  148.0282 H       1  UNL111      0.0741
     36 H         121.4569  151.1606  146.7349 H       1  UNL111      0.0741
     37 H         121.3525  151.9424  144.3958 H       1  UNL111      0.0741
     38 H         121.7223  153.6522  144.0259 H       1  UNL111      0.0741
     39 H         123.7335  153.4103  144.9633 H       1  UNL111      0.0751
     40 H         123.6302  151.8401  145.7926 H       1  UNL111      0.0751
     41 H         123.9510  153.0638  148.0188 H       1  UNL111      0.0589
     42 H         123.9781  154.5955  147.1691 H       1  UNL111      0.0589
     43 H         115.9553  156.7482  147.3525 H       1  UNL111      0.0506
     44 H         115.6407  155.4169  148.4970 H       1  UNL111      0.0506
     45 H         113.5684  156.7890  147.2765 H       1  UNL111      0.0366
     46 H         113.4574  155.0911  147.7440 H       1  UNL111      0.0366
     47 H         113.8727  156.2244  144.9737 H       1  UNL111      0.0431
     48 H         113.0334  154.7364  145.4807 H       1  UNL111      0.0431
     49 H         115.3786  154.0083  144.5675 H       1  UNL111      0.0818
     50 H         115.7538  152.5830  148.0906 H       1  UNL111      0.0993
     51 H         117.3589  150.9472  144.4195 H       1  UNL111      0.0993
     52 H         114.0833  150.7884  148.1381 H       1  UNL111      0.0890
     53 H         115.7076  149.1347  144.5268 H       1  UNL111      0.0890
     54 H         125.8492  151.4672  147.8848 H       1  UNL111      0.0893
     55 H         125.9464  155.2466  145.7738 H       1  UNL111      0.0893
     56 H         114.0555  149.0501  146.3714 H       1  UNL111      0.0876
     57 H         128.2617  151.1968  147.4728 H       1  UNL111      0.0876
     58 H         128.3578  154.9417  145.3791 H       1  UNL111      0.0876
     59 H         129.5201  152.9237  146.2212 H       1  UNL111      0.0874
@<TRIPOS>UNITY_ATOM_ATTR
2 1
charge 1
@<TRIPOS>BOND
     1     1    10    2
     2     2     7    1
     3     2     8    1
     4     2     9    1
     5     3     4    1
     6     3    10   am
     7     3    12    1
     8     4     5    1
     9     4     6    1
    10     5     7    1
    11     6     8    1
    12     9    11    1
    13    10    13    1
    14    11    18    1
    15    12    19   ar
    16    12    20   ar
    17    13    14    1
    18    13    17    2
    19    14    15    1
    20    15    16    1
    21    16    17    1
    22    18    23   ar
    23    18    24   ar
    24    19    21   ar
    25    20    22   ar
    26    21    25   ar
    27    22    25   ar
    28    23    26   ar
    29    24    27   ar
    30    26    28   ar
    31    27    28   ar
    32     2    29    1
    33     4    30    1
    34     5    31    1
    35     5    32    1
    36     6    33    1
    37     6    34    1
    38     7    35    1
    39     7    36    1
    40     8    37    1
    41     8    38    1
    42     9    39    1
    43     9    40    1
    44    11    41    1
    45    11    42    1
    46    14    43    1
    47    14    44    1
    48    15    45    1
    49    15    46    1
    50    16    47    1
    51    16    48    1
    52    17    49    1
    53    19    50    1
    54    20    51    1
    55    21    52    1
    56    22    53    1
    57    23    54    1
    58    24    55    1
    59    25    56    1
    60    26    57    1
    61    27    58    1
    62    28    59    1
@<TRIPOS>MOLECULE
608913
 49 51 0 0 0
SMALL
GASTEIGER

@<TRIPOS>ATOM
      1 N         120.7964  152.5406  146.2486 N.4     1  UNL111      0.4269
      2 N         116.5819  152.3207  145.9851 N.pl3   1  UNL111     -0.4095
      3 C         118.6955  151.2273  146.5668 C.3     1  UNL111     -0.0336
      4 C         117.8900  152.5425  146.5760 C.3     1  UNL111      0.0016
      5 C         120.1150  151.4726  147.0788 C.3     1  UNL111     -0.0357
      6 C         118.6216  153.6175  145.7688 C.3     1  UNL111     -0.0354
      7 C         120.0278  153.8407  146.2887 C.3     1  UNL111     -0.0373
      8 C         122.2540  152.7011  146.6743 C.3     1  UNL111     -0.0356
      9 C         118.0292  150.1468  147.4258 C.3     1  UNL111     -0.0564
     10 C         123.0742  153.4388  145.6121 C.3     1  UNL111     -0.0312
     11 C         115.4492  153.0797  146.2305 C.ar    1  UNL111     -0.0245
     12 C         124.5316  153.4637  145.9923 C.ar    1  UNL111     -0.0753
     13 C         114.2699  152.7671  145.5372 C.ar    1  UNL111     -0.0592
     14 C         115.3968  154.1380  147.1444 C.ar    1  UNL111     -0.0592
     15 C         125.0291  154.4715  146.8307 C.ar    1  UNL111     -0.0811
     16 C         125.4013  152.4610  145.5413 C.ar    1  UNL111     -0.0811
     17 C         113.0885  153.4876  145.7384 C.ar    1  UNL111     -0.0792
     18 C         114.2172  154.8636  147.3510 C.ar    1  UNL111     -0.0792
     19 C         113.0629  154.5390  146.6467 C.ar    1  UNL111     -0.0845
     20 C         126.3724  154.4753  147.2085 C.ar    1  UNL111     -0.0857
     21 C         126.7440  152.4689  145.9216 C.ar    1  UNL111     -0.0857
     22 C         127.2284  153.4742  146.7553 C.ar    1  UNL111     -0.0868
     23 H         120.8083  152.2058  145.2741 H       1  UNL111      0.1325
     24 H         116.4813  151.6035  145.2720 H       1  UNL111      0.1811
     25 H         118.7544  150.8455  145.5378 H       1  UNL111      0.0592
     26 H         117.7929  152.8631  147.6210 H       1  UNL111      0.0825
     27 H         120.1281  151.8098  148.1221 H       1  UNL111      0.0752
     28 H         120.7163  150.5612  146.9866 H       1  UNL111      0.0752
     29 H         118.0730  154.5660  145.8089 H       1  UNL111      0.0546
     30 H         118.6611  153.3315  144.7090 H       1  UNL111      0.0546
     31 H         120.5480  154.5604  145.6517 H       1  UNL111      0.0741
     32 H         120.0311  154.1996  147.3239 H       1  UNL111      0.0741
     33 H         122.6529  151.6898  146.8167 H       1  UNL111      0.0751
     34 H         122.2597  153.2178  147.6411 H       1  UNL111      0.0751
     35 H         117.9150  150.4789  148.4633 H       1  UNL111      0.0311
     36 H         118.6297  149.2306  147.4289 H       1  UNL111      0.0311
     37 H         117.0377  149.8867  147.0418 H       1  UNL111      0.0311
     38 H         122.7250  154.4695  145.4854 H       1  UNL111      0.0589
     39 H         122.9564  152.9544  144.6347 H       1  UNL111      0.0589
     40 H         114.2535  151.9474  144.8228 H       1  UNL111      0.0987
     41 H         116.2651  154.4292  147.7239 H       1  UNL111      0.0987
     42 H         124.3857  155.2708  147.1922 H       1  UNL111      0.0893
     43 H         125.0525  151.6683  144.8829 H       1  UNL111      0.0893
     44 H         112.1897  153.2231  145.1869 H       1  UNL111      0.0890
     45 H         114.1996  155.6815  148.0672 H       1  UNL111      0.0890
     46 H         112.1459  155.1000  146.8081 H       1  UNL111      0.0876
     47 H         126.7576  155.2632  147.8523 H       1  UNL111      0.0876
     48 H         127.4185  151.6941  145.5632 H       1  UNL111      0.0876
     49 H         128.2767  153.4819  147.0459 H       1  UNL111      0.0874
@<TRIPOS>UNITY_ATOM_ATTR
1 1
charge 1
@<TRIPOS>BOND
     1     1     5    1
     2     1     7    1
     3     1     8    1
     4     2     4    1
     5     2    11    1
     6     3     4    1
     7     3     5    1
     8     3     9    1
     9     4     6    1
    10     6     7    1
    11     8    10    1
    12    10    12    1
    13    11    13   ar
    14    11    14   ar
    15    12    15   ar
    16    12    16   ar
    17    13    17   ar
    18    14    18   ar
    19    15    20   ar
    20    16    21   ar
    21    17    19   ar
    22    18    19   ar
    23    20    22   ar
    24    21    22   ar
    25     1    23    1
    26     2    24    1
    27     3    25    1
    28     4    26    1
    29     5    27    1
    30     5    28    1
    31     6    29    1
    32     6    30    1
    33     7    31    1
    34     7    32    1
    35     8    33    1
    36     8    34    1
    37     9    35    1
    38     9    36    1
    39     9    37    1
    40    10    38    1
    41    10    39    1
    42    13    40    1
    43    14    41    1
    44    15    42    1
    45    16    43    1
    46    17    44    1
    47    18    45    1
    48    19    46    1
    49    20    47    1
    50    21    48    1
    51    22    49    1
@<TRIPOS>MOLECULE
45040238
 27 29 0 0 0
SMALL
GASTEIGER

@<TRIPOS>ATOM
      1 N         119.1109  151.3247  147.4479 N.4     1  UNL111      0.4558
      2 N         122.9650  152.3936  145.3145 N.pl3   1  UNL111     -0.3212
      3 C         122.1725  151.7764  146.1978 C.3     1  UNL111      0.1200
      4 C         121.1938  150.8516  145.6921 C.3     1  UNL111      0.0894
      5 C         121.6264  152.4525  147.3504 C.3     1  UNL111      0.0894
      6 C         119.7851  150.6885  146.2877 C.3     1  UNL111      0.0661
      7 C         120.2025  152.2325  147.8819 C.3     1  UNL111      0.0661
      8 C         117.9015  152.0250  147.0862 C.3     1  UNL111      0.0661
      9 C         116.6055  152.7528  146.7158 C.3     1  UNL111      0.0776
     10 C         123.9542  153.1743  145.8111 C.ar    1  UNL111      0.0118
     11 C         115.3953  153.4238  146.3756 C.2     1  UNL111     -0.0058
     12 C         124.2071  154.4153  145.2061 C.ar    1  UNL111     -0.0499
     13 C         124.8157  152.7925  146.8575 C.ar    1  UNL111     -0.0499
     14 C         115.3194  154.8111  146.4701 C.2     1  UNL111     -0.0052
     15 C         114.2891  152.6881  145.9571 C.2     1  UNL111     -0.0052
     16 C         125.2362  155.2549  145.6465 C.ar    1  UNL111     -0.0777
     17 C         125.8460  153.6270  147.3045 C.ar    1  UNL111     -0.0777
     18 C         114.1329  155.4644  146.1443 C.2     1  UNL111     -0.0019
     19 C         113.1032  153.3425  145.6316 C.2     1  UNL111     -0.0019
     20 C         126.0539  154.8628  146.7011 C.ar    1  UNL111     -0.0842
     21 C         113.0255  154.7302  145.7256 C.2     1  UNL111     -0.0007
     22 H         118.9573  150.6202  148.1727 H       1  UNL111      0.1720
     23 H         123.5881  154.7342  144.3698 H       1  UNL111      0.1005
     24 H         124.6965  151.8178  147.3246 H       1  UNL111      0.1005
     25 H         125.3979  156.2077  145.1533 H       1  UNL111      0.0891
     26 H         126.4898  153.2984  148.1136 H       1  UNL111      0.0891
     27 H         126.8571  155.5085  147.0393 H       1  UNL111      0.0877
@<TRIPOS>UNITY_ATOM_ATTR
1 1
charge 1
@<TRIPOS>BOND
     1     1     6    1
     2     1     7    1
     3     1     8    1
     4     2     3    1
     5     2    10    1
     6     3     4    1
     7     3     5    1
     8     4     6    1
     9     5     7    1
    10     8     9    1
    11     9    11    1
    12    10    12   ar
    13    10    13   ar
    14    11    14    2
    15    11    15    1
    16    12    16   ar
    17    13    17   ar
    18    14    18    1
    19    15    19    2
    20    16    20   ar
    21    17    20   ar
    22    18    21    2
    23    19    21    1
    24     1    22    1
    25    12    23    1
    26    13    24    1
    27    16    25    1
    28    17    26    1
    29    20    27    1
@<TRIPOS>MOLECULE
137699900
 36 38 0 0 0
SMALL
GASTEIGER

@<TRIPOS>ATOM
      1 O         118.6355  155.6501  146.0578 O.2     1  UNL111     -0.3815
      2 O         113.2295  150.1488  146.1187 O.2     1  UNL111     -0.5046
      3 N         122.0051  154.0950  145.9459 N.4     1  UNL111      0.4556
      4 N         117.6436  153.6298  146.5748 N.am    1  UNL111     -0.2594
      5 C         118.9033  153.0468  146.7685 C.3     1  UNL111      0.1085
      6 C         119.8584  153.7106  147.6403 C.3     1  UNL111      0.0831
      7 C         119.6349  152.7149  145.5551 C.3     1  UNL111      0.0831
      8 C         121.2646  154.2022  147.2278 C.3     1  UNL111      0.0648
      9 C         121.0470  153.2401  145.1990 C.3     1  UNL111      0.0648
     10 C         123.3251  153.5216  146.0792 C.3     1  UNL111      0.0661
     11 C         124.7332  152.9346  146.2128 C.3     1  UNL111      0.0776
     12 C         116.5038  152.7540  146.4855 C.2     1  UNL111      0.0461
     13 C         117.6096  155.0290  146.3763 C.2     1  UNL111      0.1551
     14 C         116.3008  155.7789  146.5963 C.3     1  UNL111      0.0359
     15 C         126.0495  152.4011  146.3322 C.2     1  UNL111     -0.0058
     16 C         116.6405  151.4065  146.8443 C.2     1  UNL111      0.0395
     17 C         115.2638  153.1604  145.9953 C.2     1  UNL111      0.0395
     18 C         116.5051  157.2657  146.9006 C.3     1  UNL111     -0.0412
     19 C         115.5768  150.5109  146.7402 C.2     1  UNL111      0.0621
     20 C         114.1901  152.2748  145.8875 C.2     1  UNL111      0.0621
     21 C         126.3713  151.5793  147.4094 C.2     1  UNL111     -0.0052
     22 C         127.0113  152.7090  145.3729 C.2     1  UNL111     -0.0052
     23 C         114.3415  150.9414  146.2589 C.2     1  UNL111      0.0982
     24 C         117.1065  157.5019  148.2793 C.3     1  UNL111     -0.0653
     25 C         127.6600  151.0633  147.5267 C.2     1  UNL111     -0.0019
     26 C         128.2995  152.1924  145.4914 C.2     1  UNL111     -0.0019
     27 C         128.6233  151.3701  146.5682 C.2     1  UNL111     -0.0007
     28 C         113.4203  148.7970  146.4334 C.3     1  UNL111      0.2570
     29 H         122.0391  155.0244  145.5068 H       1  UNL111      0.1720
     30 H         115.7401  155.3249  147.4197 H       1  UNL111      0.0746
     31 H         115.7174  155.7050  145.6724 H       1  UNL111      0.0746
     32 H         115.5323  157.7696  146.8553 H       1  UNL111      0.0369
     33 H         117.1411  157.7331  146.1400 H       1  UNL111      0.0369
     34 H         116.4714  157.0745  149.0618 H       1  UNL111      0.0262
     35 H         117.2007  158.5758  148.4696 H       1  UNL111      0.0262
     36 H         118.1025  157.0572  148.3653 H       1  UNL111      0.0262
@<TRIPOS>UNITY_ATOM_ATTR
3 1
charge 1
@<TRIPOS>BOND
     1     1    13    2
     2     2    23    1
     3     2    28    1
     4     3     8    1
     5     3     9    1
     6     3    10    1
     7     4     5    1
     8     4    12    1
     9     4    13   am
    10     5     6    1
    11     5     7    1
    12     6     8    1
    13     7     9    1
    14    10    11    1
    15    11    15    1
    16    12    16    2
    17    12    17    1
    18    13    14    1
    19    14    18    1
    20    15    21    2
    21    15    22    1
    22    16    19    1
    23    17    20    2
    24    18    24    1
    25    19    23    2
    26    20    23    1
    27    21    25    1
    28    22    26    2
    29    25    27    2
    30    26    27    1
    31     3    29    1
    32    14    30    1
    33    14    31    1
    34    18    32    1
    35    18    33    1
    36    24    34    1
    37    24    35    1
    38    24    36    1
@<TRIPOS>MOLECULE
137700508
 59 62 0 0 0
SMALL
GASTEIGER

@<TRIPOS>ATOM
      1 S         116.0538  150.6955  144.6830 S.3     1  UNL111     -0.1876
      2 O         118.0009  151.3811  147.1820 O.2     1  UNL111     -0.3752
      3 N         121.7817  153.3131  146.7322 N.4     1  UNL111      0.4267
      4 N         117.5150  153.5033  146.4436 N.am    1  UNL111     -0.2864
      5 C         118.9429  153.8937  146.4098 C.3     1  UNL111      0.0183
      6 C         119.5994  153.8190  147.7967 C.3     1  UNL111     -0.0329
      7 C         119.7303  153.0942  145.3614 C.3     1  UNL111     -0.0329
      8 C         121.0692  154.1926  147.7377 C.3     1  UNL111     -0.0370
      9 C         121.1978  153.4813  145.3482 C.3     1  UNL111     -0.0370
     10 C         123.2857  153.5555  146.7749 C.3     1  UNL111     -0.0358
     11 C         115.7964  151.6723  146.2162 C.3     1  UNL111      0.0779
     12 C         117.1726  152.1663  146.7060 C.2     1  UNL111      0.1694
     13 C         115.1280  150.7147  147.1982 C.3     1  UNL111     -0.0209
     14 C         116.5489  154.5531  146.4092 C.3     1  UNL111     -0.0045
     15 C         124.0646  152.4040  146.1332 C.3     1  UNL111     -0.0312
     16 C         115.6024  149.3012  146.8869 C.3     1  UNL111     -0.0426
     17 C         115.4941  149.1207  145.3846 C.3     1  UNL111     -0.0194
     18 C         115.5264  154.6054  147.3675 C.3     1  UNL111     -0.0555
     19 C         116.6309  155.5710  145.4510 C.3     1  UNL111     -0.0555
     20 C         125.5477  152.6452  146.2471 C.3     1  UNL111     -0.0753
     21 C         114.5967  155.6475  147.3566 C.3     1  UNL111     -0.0787
     22 C         115.6977  156.6105  145.4398 C.3     1  UNL111     -0.0787
     23 C         126.2197  153.4003  145.2751 C.3     1  UNL111     -0.0811
     24 C         126.2670  152.1510  147.3439 C.3     1  UNL111     -0.0811
     25 C         114.6819  156.6481  146.3919 C.3     1  UNL111     -0.0844
     26 C         127.5861  153.6546  145.3992 C.3     1  UNL111     -0.0857
     27 C         127.6336  152.4077  147.4639 C.3     1  UNL111     -0.0857
     28 C         128.2918  153.1598  146.4935 C.3     1  UNL111     -0.0868
     29 H         121.6229  152.3358  147.0256 H       1  UNL111      0.1323
     30 H         119.0099  154.9459  146.1054 H       1  UNL111      0.0864
     31 H         119.5169  152.8182  148.2315 H       1  UNL111      0.0550
     32 H         119.0794  154.4935  148.4879 H       1  UNL111      0.0550
     33 H         119.2988  153.2656  144.3676 H       1  UNL111      0.0550
     34 H         119.6594  152.0162  145.5418 H       1  UNL111      0.0550
     35 H         121.2185  155.2344  147.4328 H       1  UNL111      0.0741
     36 H         121.5389  154.0281  148.7132 H       1  UNL111      0.0741
     37 H         121.7467  152.8288  144.6645 H       1  UNL111      0.0741
     38 H         121.3442  154.5252  145.0493 H       1  UNL111      0.0741
     39 H         123.5629  153.6453  147.8320 H       1  UNL111      0.0751
     40 H         123.4766  154.5165  146.2832 H       1  UNL111      0.0751
     41 H         115.1203  152.4879  145.9643 H       1  UNL111      0.1069
     42 H         114.0382  150.7657  147.0744 H       1  UNL111      0.0453
     43 H         115.3438  150.9794  148.2391 H       1  UNL111      0.0453
     44 H         123.8074  152.2871  145.0748 H       1  UNL111      0.0589
     45 H         123.8058  151.4535  146.6162 H       1  UNL111      0.0589
     46 H         114.9953  148.5577  147.4140 H       1  UNL111      0.0384
     47 H         116.6382  149.1578  147.2168 H       1  UNL111      0.0384
     48 H         116.1076  148.2897  145.0267 H       1  UNL111      0.0583
     49 H         114.4565  148.9477  145.0825 H       1  UNL111      0.0583
     50 H         115.4520  153.8582  148.1538 H       1  UNL111      0.0993
     51 H         117.3858  155.5500  144.6703 H       1  UNL111      0.0993
     52 H         113.8068  155.6824  148.1039 H       1  UNL111      0.0890
     53 H         115.7542  157.3870  144.6800 H       1  UNL111      0.0890
     54 H         125.6953  153.7913  144.4059 H       1  UNL111      0.0893
     55 H         125.7802  151.5544  148.1124 H       1  UNL111      0.0893
     56 H         113.9537  157.4564  146.3802 H       1  UNL111      0.0876
     57 H         128.1061  154.2338  144.6392 H       1  UNL111      0.0876
     58 H         128.1908  152.0159  148.3122 H       1  UNL111      0.0876
     59 H         129.3581  153.3539  146.5861 H       1  UNL111      0.0874
@<TRIPOS>UNITY_ATOM_ATTR
3 1
charge 1
@<TRIPOS>BOND
     1     1    11    1
     2     1    17    1
     3     2    12    2
     4     3     8    1
     5     3     9    1
     6     3    10    1
     7     4     5    1
     8     4    12   am
     9     4    14    1
    10     5     6    1
    11     5     7    1
    12     6     8    1
    13     7     9    1
    14    10    15    1
    15    11    12    1
    16    11    13    1
    17    13    16    1
    18    14    18   ar
    19    14    19   ar
    20    15    20    1
    21    16    17    1
    22    18    21   ar
    23    19    22   ar
    24    20    23   ar
    25    20    24   ar
    26    21    25   ar
    27    22    25   ar
    28    23    26   ar
    29    24    27   ar
    30    26    28   ar
    31    27    28   ar
    32     3    29    1
    33     5    30    1
    34     6    31    1
    35     6    32    1
    36     7    33    1
    37     7    34    1
    38     8    35    1
    39     8    36    1
    40     9    37    1
    41     9    38    1
    42    10    39    1
    43    10    40    1
    44    11    41    1
    45    13    42    1
    46    13    43    1
    47    15    44    1
    48    15    45    1
    49    16    46    1
    50    16    47    1
    51    17    48    1
    52    17    49    1
    53    18    50    1
    54    19    51    1
    55    21    52    1
    56    22    53    1
    57    23    54    1
    58    24    55    1
    59    25    56    1
    60    26    57    1
    61    27    58    1
    62    28    59    1
@<TRIPOS>MOLECULE
146167150
 54 56 0 0 0
SMALL
GASTEIGER

@<TRIPOS>ATOM
      1 F         122.8778  154.6601  146.7124 F       1  UNL111     -0.3289
      2 F         124.7376  150.9446  146.9862 F       1  UNL111     -0.2860
      3 O         117.6195  155.5218  146.4148 O.2     1  UNL111     -0.3824
      4 N         120.9676  152.9275  146.1269 N.4     1  UNL111      0.4314
      5 N         116.7362  153.4015  146.4981 N.am    1  UNL111     -0.2907
      6 C         118.0759  152.7766  146.3834 C.3     1  UNL111      0.0176
      7 C         118.9767  153.1010  147.5846 C.3     1  UNL111     -0.0327
      8 C         118.7529  153.1181  145.0457 C.3     1  UNL111     -0.0327
      9 C         120.3567  152.4866  147.4321 C.3     1  UNL111     -0.0348
     10 C         120.1359  152.5023  144.9441 C.3     1  UNL111     -0.0348
     11 C         122.4342  152.4970  145.9767 C.3     1  UNL111      0.0089
     12 C         123.3550  153.3791  146.8450 C.3     1  UNL111      0.1058
     13 C         115.6102  152.5302  146.4062 C.3     1  UNL111     -0.0054
     14 C         116.6318  154.7984  146.5768 C.2     1  UNL111      0.1497
     15 C         124.8038  153.2473  146.4675 C.3     1  UNL111      0.0360
     16 C         115.2790  155.4007  146.9435 C.3     1  UNL111      0.0336
     17 C         114.5875  152.7756  145.4823 C.3     1  UNL111     -0.0556
     18 C         115.5371  151.3824  147.2070 C.3     1  UNL111     -0.0556
     19 C         115.4245  156.7813  147.5659 C.3     1  UNL111     -0.0446
     20 C         125.4410  152.0067  146.5685 C.3     1  UNL111      0.1010
     21 C         125.5519  154.3494  146.0360 C.3     1  UNL111     -0.0521
     22 C         113.5017  151.9029  145.3770 C.3     1  UNL111     -0.0787
     23 C         114.4489  150.5125  147.1034 C.3     1  UNL111     -0.0787
     24 C         113.4314  150.7740  146.1894 C.3     1  UNL111     -0.0844
     25 C         126.7816  151.8461  146.2385 C.3     1  UNL111     -0.0212
     26 C         126.9004  154.1967  145.7021 C.3     1  UNL111     -0.0786
     27 C         127.5141  152.9472  145.8017 C.3     1  UNL111     -0.0708
     28 H         120.9968  153.9655  146.1304 H       1  UNL111      0.1354
     29 H         117.9489  151.6856  146.3776 H       1  UNL111      0.0863
     30 H         118.5112  152.7293  148.5055 H       1  UNL111      0.0551
     31 H         119.0947  154.1811  147.7197 H       1  UNL111      0.0551
     32 H         118.8473  154.1995  144.9050 H       1  UNL111      0.0551
     33 H         118.1319  152.7582  144.2162 H       1  UNL111      0.0551
     34 H         121.0096  152.8225  148.2426 H       1  UNL111      0.0744
     35 H         120.3191  151.3916  147.4283 H       1  UNL111      0.0744
     36 H         120.1012  151.4073  144.9390 H       1  UNL111      0.0744
     37 H         120.6400  152.8539  144.0379 H       1  UNL111      0.0744
     38 H         122.6841  152.6429  144.9195 H       1  UNL111      0.0928
     39 H         122.4957  151.4300  146.2129 H       1  UNL111      0.0928
     40 H         123.2459  153.1228  147.9043 H       1  UNL111      0.1492
     41 H         114.7607  154.7524  147.6569 H       1  UNL111      0.0734
     42 H         114.6751  155.4930  146.0366 H       1  UNL111      0.0734
     43 H         114.6340  153.6222  144.8025 H       1  UNL111      0.0993
     44 H         116.2981  151.1692  147.9519 H       1  UNL111      0.0993
     45 H         116.0529  156.7428  148.4619 H       1  UNL111      0.0319
     46 H         114.4440  157.1756  147.8502 H       1  UNL111      0.0319
     47 H         115.8829  157.4856  146.8638 H       1  UNL111      0.0319
     48 H         125.0991  155.3374  145.9613 H       1  UNL111      0.0952
     49 H         112.7121  152.1007  144.6552 H       1  UNL111      0.0890
     50 H         114.3876  149.6346  147.7427 H       1  UNL111      0.0890
     51 H         112.5825  150.0983  146.1097 H       1  UNL111      0.0876
     52 H         127.2516  150.8709  146.3268 H       1  UNL111      0.1092
     53 H         127.4790  155.0571  145.3693 H       1  UNL111      0.0884
     54 H         128.5659  152.8362  145.5450 H       1  UNL111      0.0903
@<TRIPOS>UNITY_ATOM_ATTR
4 1
charge 1
@<TRIPOS>BOND
     1     1    12    1
     2     2    20    1
     3     3    14    2
     4     4     9    1
     5     4    10    1
     6     4    11    1
     7     5     6    1
     8     5    13    1
     9     5    14   am
    10     6     7    1
    11     6     8    1
    12     7     9    1
    13     8    10    1
    14    11    12    1
    15    12    15    1
    16    13    17   ar
    17    13    18   ar
    18    14    16    1
    19    15    20   ar
    20    15    21   ar
    21    16    19    1
    22    17    22   ar
    23    18    23   ar
    24    20    25   ar
    25    21    26   ar
    26    22    24   ar
    27    23    24   ar
    28    25    27   ar
    29    26    27   ar
    30     4    28    1
    31     6    29    1
    32     7    30    1
    33     7    31    1
    34     8    32    1
    35     8    33    1
    36     9    34    1
    37     9    35    1
    38    10    36    1
    39    10    37    1
    40    11    38    1
    41    11    39    1
    42    12    40    1
    43    16    41    1
    44    16    42    1
    45    17    43    1
    46    18    44    1
    47    19    45    1
    48    19    46    1
    49    19    47    1
    50    21    48    1
    51    22    49    1
    52    23    50    1
    53    24    51    1
    54    25    52    1
    55    26    53    1
    56    27    54    1
@<TRIPOS>MOLECULE
165361468
 62 64 0 0 0
SMALL
GASTEIGER

@<TRIPOS>ATOM
      1 BR        128.4399  152.2835  146.6354 Br      1  UNL111     -0.0581
      2 O         116.6049  155.4268  145.3996 O.2     1  UNL111     -0.3824
      3 O         123.4070  150.9548  145.6698 O.2     1  UNL111     -0.5807
      4 O         126.9845  155.0614  146.6736 O.2     1  UNL111     -0.5768
      5 N         120.0950  153.4307  146.6938 N.4     1  UNL111      0.4269
      6 N         115.8314  153.5161  146.4158 N.am    1  UNL111     -0.2907
      7 C         117.2065  153.0634  146.7364 C.3     1  UNL111      0.0176
      8 C         118.0373  152.8128  145.4666 C.3     1  UNL111     -0.0330
      9 C         117.9156  154.0103  147.7154 C.3     1  UNL111     -0.0330
     10 C         119.4573  152.3917  145.7984 C.3     1  UNL111     -0.0370
     11 C         119.3391  153.5650  147.9950 C.3     1  UNL111     -0.0370
     12 C         121.5722  153.1516  146.9439 C.3     1  UNL111     -0.0330
     13 C         122.4263  153.5499  145.7368 C.3     1  UNL111     -0.0146
     14 C         114.7731  152.5971  146.6820 C.3     1  UNL111     -0.0054
     15 C         115.6431  154.7619  145.7983 C.2     1  UNL111      0.1497
     16 C         123.8858  153.2372  145.9751 C.3     1  UNL111     -0.0026
     17 C         114.2237  155.3123  145.6995 C.3     1  UNL111      0.0336
     18 C         113.8532  152.2534  145.6846 C.3     1  UNL111     -0.0556
     19 C         114.6693  151.9835  147.9379 C.3     1  UNL111     -0.0556
     20 C         124.3592  151.9106  145.9228 C.3     1  UNL111      0.0503
     21 C         124.7848  154.2810  146.2436 C.3     1  UNL111     -0.0032
     22 C         114.2116  156.8277  145.5639 C.3     1  UNL111     -0.0446
     23 C         112.8354  151.3325  145.9448 C.3     1  UNL111     -0.0787
     24 C         113.6490  151.0655  148.1981 C.3     1  UNL111     -0.0787
     25 C         112.7318  150.7418  147.2017 C.3     1  UNL111     -0.0844
     26 C         126.1345  154.0077  146.4711 C.3     1  UNL111      0.0672
     27 C         125.7166  151.6481  146.1336 C.3     1  UNL111      0.0131
     28 C         126.6045  152.6965  146.3945 C.3     1  UNL111      0.0660
     29 C         123.8795  149.6413  145.3736 C.3     1  UNL111      0.0298
     30 C         127.0101  155.4324  148.0528 C.3     1  UNL111      0.0307
     31 H         120.0321  154.3421  146.2128 H       1  UNL111      0.1323
     32 H         117.1414  152.0887  147.2389 H       1  UNL111      0.0863
     33 H         118.0837  153.7015  144.8297 H       1  UNL111      0.0550
     34 H         117.5576  152.0331  144.8622 H       1  UNL111      0.0550
     35 H         117.3552  154.0546  148.6571 H       1  UNL111      0.0550
     36 H         117.9451  155.0361  147.3334 H       1  UNL111      0.0550
     37 H         119.4877  151.4317  146.3258 H       1  UNL111      0.0741
     38 H         120.0497  152.3191  144.8827 H       1  UNL111      0.0741
     39 H         119.8554  154.3153  148.6030 H       1  UNL111      0.0741
     40 H         119.3763  152.5956  148.5045 H       1  UNL111      0.0741
     41 H         121.6592  152.0941  147.2146 H       1  UNL111      0.0754
     42 H         121.8709  153.7518  147.8116 H       1  UNL111      0.0754
     43 H         122.3009  154.6217  145.5369 H       1  UNL111      0.0625
     44 H         122.1041  153.0402  144.8222 H       1  UNL111      0.0625
     45 H         113.6535  155.0404  146.5933 H       1  UNL111      0.0734
     46 H         113.7384  154.8840  144.8183 H       1  UNL111      0.0734
     47 H         113.9328  152.6609  144.6803 H       1  UNL111      0.0993
     48 H         115.3490  152.2398  148.7452 H       1  UNL111      0.0993
     49 H         124.4523  155.3167  146.2591 H       1  UNL111      0.1171
     50 H         114.7189  157.3011  146.4110 H       1  UNL111      0.0319
     51 H         113.1823  157.1981  145.5289 H       1  UNL111      0.0319
     52 H         114.7184  157.1468  144.6472 H       1  UNL111      0.0319
     53 H         112.1254  151.0702  145.1633 H       1  UNL111      0.0890
     54 H         113.5615  150.6090  149.1814 H       1  UNL111      0.0890
     55 H         111.9354  150.0287  147.4040 H       1  UNL111      0.0876
     56 H         126.1113  150.6375  146.0956 H       1  UNL111      0.1229
     57 H         123.0147  149.0347  145.0883 H       1  UNL111      0.1069
     58 H         124.3316  149.1813  146.2581 H       1  UNL111      0.1069
     59 H         124.5750  149.6497  144.5278 H       1  UNL111      0.1069
     60 H         127.7795  156.1997  148.1796 H       1  UNL111      0.1070
     61 H         127.2670  154.5832  148.6956 H       1  UNL111      0.1070
     62 H         126.0493  155.8605  148.3581 H       1  UNL111      0.1070
@<TRIPOS>UNITY_ATOM_ATTR
5 1
charge 1
@<TRIPOS>BOND
     1     1    28    1
     2     2    15    2
     3     3    20    1
     4     3    29    1
     5     4    26    1
     6     4    30    1
     7     5    10    1
     8     5    11    1
     9     5    12    1
    10     6     7    1
    11     6    14    1
    12     6    15   am
    13     7     8    1
    14     7     9    1
    15     8    10    1
    16     9    11    1
    17    12    13    1
    18    13    16    1
    19    14    18   ar
    20    14    19   ar
    21    15    17    1
    22    16    20   ar
    23    16    21   ar
    24    17    22    1
    25    18    23   ar
    26    19    24   ar
    27    20    27   ar
    28    21    26   ar
    29    23    25   ar
    30    24    25   ar
    31    26    28   ar
    32    27    28   ar
    33     5    31    1
    34     7    32    1
    35     8    33    1
    36     8    34    1
    37     9    35    1
    38     9    36    1
    39    10    37    1
    40    10    38    1
    41    11    39    1
    42    11    40    1
    43    12    41    1
    44    12    42    1
    45    13    43    1
    46    13    44    1
    47    17    45    1
    48    17    46    1
    49    18    47    1
    50    19    48    1
    51    21    49    1
    52    22    50    1
    53    22    51    1
    54    22    52    1
    55    23    53    1
    56    24    54    1
    57    25    55    1
    58    27    56    1
    59    29    57    1
    60    29    58    1
    61    29    59    1
    62    30    60    1
    63    30    61    1
    64    30    62    1
@<TRIPOS>MOLECULE
527010
 57 59 0 0 0
SMALL
GASTEIGER

@<TRIPOS>ATOM
      1 CL        115.2352  148.1296  146.6385 Cl      1  UNL111     -0.1310
      2 O         117.1063  155.8419  145.9859 O.2     1  UNL111     -0.3822
      3 N         121.6367  153.2627  146.7416 N.4     1  UNL111      0.4267
      4 N         117.3341  153.6679  146.6838 N.am    1  UNL111     -0.2904
      5 C         118.7829  153.8821  146.8622 C.3     1  UNL111      0.0176
      6 C         119.4631  153.0077  147.9221 C.3     1  UNL111     -0.0330
      7 C         119.5318  153.7593  145.5271 C.3     1  UNL111     -0.0330
      8 C         120.9281  153.3889  148.0749 C.3     1  UNL111     -0.0370
      9 C         120.9945  154.1374  145.6857 C.3     1  UNL111     -0.0370
     10 C         123.1306  153.5360  146.9032 C.3     1  UNL111     -0.0358
     11 C         123.9320  153.0024  145.7124 C.3     1  UNL111     -0.0312
     12 C         116.8266  152.3464  146.6708 C.3     1  UNL111     -0.0028
     13 C         116.5721  154.7583  146.2340 C.2     1  UNL111      0.1504
     14 C         115.0688  154.5471  146.0828 C.3     1  UNL111      0.0353
     15 C         125.4103  153.1496  145.9607 C.3     1  UNL111     -0.0753
     16 C         116.5372  151.6991  147.8759 C.3     1  UNL111     -0.0472
     17 C         116.6039  151.6916  145.4543 C.3     1  UNL111     -0.0472
     18 C         114.3219  155.8644  145.8790 C.3     1  UNL111     -0.0413
     19 C         126.0711  154.3401  145.6262 C.3     1  UNL111     -0.0811
     20 C         126.1371  152.1120  146.5615 C.3     1  UNL111     -0.0811
     21 C         116.0427  150.3928  147.8646 C.3     1  UNL111     -0.0435
     22 C         116.1103  150.3852  145.4454 C.3     1  UNL111     -0.0435
     23 C         112.8227  155.6425  145.7623 C.3     1  UNL111     -0.0653
     24 C         115.8351  149.7401  146.6503 C.3     1  UNL111      0.0183
     25 C         127.4342  154.4871  145.8866 C.3     1  UNL111     -0.0857
     26 C         127.4999  152.2636  146.8203 C.3     1  UNL111     -0.0857
     27 C         128.1473  153.4504  146.4842 C.3     1  UNL111     -0.0868
     28 H         121.5468  152.2810  146.4421 H       1  UNL111      0.1323
     29 H         118.8983  154.9204  147.2049 H       1  UNL111      0.0863
     30 H         119.3979  151.9461  147.6542 H       1  UNL111      0.0550
     31 H         118.9621  153.1301  148.8892 H       1  UNL111      0.0550
     32 H         119.0773  154.4077  144.7690 H       1  UNL111      0.0550
     33 H         119.4562  152.7341  145.1430 H       1  UNL111      0.0550
     34 H         121.0510  154.4217  148.4198 H       1  UNL111      0.0741
     35 H         121.4236  152.7086  148.7756 H       1  UNL111      0.0741
     36 H         121.5241  153.9718  144.7440 H       1  UNL111      0.0741
     37 H         121.1177  155.1807  145.9965 H       1  UNL111      0.0741
     38 H         123.4449  153.0273  147.8221 H       1  UNL111      0.0751
     39 H         123.2555  154.6161  147.0421 H       1  UNL111      0.0751
     40 H         123.6729  153.5338  144.7899 H       1  UNL111      0.0589
     41 H         123.6930  151.9465  145.5334 H       1  UNL111      0.0589
     42 H         114.6867  154.0498  146.9812 H       1  UNL111      0.0745
     43 H         114.8917  153.8975  145.2194 H       1  UNL111      0.0745
     44 H         116.6664  152.2088  148.8272 H       1  UNL111      0.1009
     45 H         116.8067  152.1878  144.5081 H       1  UNL111      0.1009
     46 H         114.6839  156.3645  144.9727 H       1  UNL111      0.0369
     47 H         114.5238  156.5417  146.7175 H       1  UNL111      0.0369
     48 H         125.5413  155.1629  145.1510 H       1  UNL111      0.0893
     49 H         125.6594  151.1714  146.8271 H       1  UNL111      0.0893
     50 H         115.8092  149.8933  148.8022 H       1  UNL111      0.1005
     51 H         115.9346  149.8781  144.4993 H       1  UNL111      0.1005
     52 H         112.5871  154.9955  144.9113 H       1  UNL111      0.0262
     53 H         112.3083  156.5974  145.6160 H       1  UNL111      0.0262
     54 H         112.4233  155.1771  146.6691 H       1  UNL111      0.0262
     55 H         127.9461  155.4088  145.6180 H       1  UNL111      0.0876
     56 H         128.0630  151.4537  147.2792 H       1  UNL111      0.0876
     57 H         129.2110  153.5646  146.6813 H       1  UNL111      0.0874
@<TRIPOS>UNITY_ATOM_ATTR
3 1
charge 1
@<TRIPOS>BOND
     1     1    24    1
     2     2    13    2
     3     3     8    1
     4     3     9    1
     5     3    10    1
     6     4     5    1
     7     4    12    1
     8     4    13   am
     9     5     6    1
    10     5     7    1
    11     6     8    1
    12     7     9    1
    13    10    11    1
    14    11    15    1
    15    12    16   ar
    16    12    17   ar
    17    13    14    1
    18    14    18    1
    19    15    19   ar
    20    15    20   ar
    21    16    21   ar
    22    17    22   ar
    23    18    23    1
    24    19    25   ar
    25    20    26   ar
    26    21    24   ar
    27    22    24   ar
    28    25    27   ar
    29    26    27   ar
    30     3    28    1
    31     5    29    1
    32     6    30    1
    33     6    31    1
    34     7    32    1
    35     7    33    1
    36     8    34    1
    37     8    35    1
    38     9    36    1
    39     9    37    1
    40    10    38    1
    41    10    39    1
    42    11    40    1
    43    11    41    1
    44    14    42    1
    45    14    43    1
    46    16    44    1
    47    17    45    1
    48    18    46    1
    49    18    47    1
    50    19    48    1
    51    20    49    1
    52    21    50    1
    53    22    51    1
    54    23    52    1
    55    23    53    1
    56    23    54    1
    57    25    55    1
    58    26    56    1
    59    27    57    1
@<TRIPOS>MOLECULE
621847
 54 56 0 0 0
SMALL
GASTEIGER

@<TRIPOS>ATOM
      1 F         116.1221  156.8636  147.5337 F       1  UNL111     -0.2890
      2 O         116.8621  150.2180  146.9613 O.2     1  UNL111     -0.3824
      3 N         121.3512  152.8920  146.1167 N.4     1  UNL111      0.4267
      4 N         117.0663  152.3645  146.1879 N.am    1  UNL111     -0.2883
      5 C         118.5213  152.1840  146.0418 C.3     1  UNL111      0.0178
      6 C         119.2628  152.4046  147.3658 C.3     1  UNL111     -0.0330
      7 C         119.1724  153.0120  144.9264 C.3     1  UNL111     -0.0330
      8 C         120.7366  152.0614  147.2249 C.3     1  UNL111     -0.0370
      9 C         120.6473  152.6659  144.7938 C.3     1  UNL111     -0.0370
     10 C         122.8528  152.6556  145.9696 C.3     1  UNL111     -0.0358
     11 C         123.6374  153.3033  147.1139 C.3     1  UNL111     -0.0312
     12 C         116.4931  153.6330  145.9398 C.3     1  UNL111      0.0101
     13 C         116.3151  151.2870  146.6774 C.2     1  UNL111      0.1499
     14 C         125.1196  153.1760  146.8773 C.3     1  UNL111     -0.0753
     15 C         114.8171  151.4982  146.8623 C.3     1  UNL111      0.0336
     16 C         116.5846  154.6459  146.8945 C.3     1  UNL111      0.0063
     17 C         115.8443  153.8723  144.7224 C.3     1  UNL111     -0.0507
     18 C         114.1281  150.2727  147.4396 C.3     1  UNL111     -0.0446
     19 C         125.8126  152.0379  147.3133 C.3     1  UNL111     -0.0811
     20 C         125.8179  154.1768  146.1870 C.3     1  UNL111     -0.0811
     21 C         116.0310  155.8910  146.6183 C.3     1  UNL111      0.0901
     22 C         115.2950  155.1291  144.4580 C.3     1  UNL111     -0.0632
     23 C         115.3910  156.1432  145.4101 C.3     1  UNL111     -0.0223
     24 C         127.1793  151.9063  147.0647 C.3     1  UNL111     -0.0857
     25 C         127.1846  154.0406  145.9402 C.3     1  UNL111     -0.0857
     26 C         127.8641  152.9060  146.3777 C.3     1  UNL111     -0.0868
     27 H         121.2310  153.8866  146.3571 H       1  UNL111      0.1323
     28 H         118.6697  151.1309  145.7627 H       1  UNL111      0.0863
     29 H         118.8251  151.7874  148.1590 H       1  UNL111      0.0550
     30 H         119.1632  153.4467  147.6915 H       1  UNL111      0.0550
     31 H         119.0723  154.0860  145.1261 H       1  UNL111      0.0550
     32 H         118.6715  152.8160  143.9709 H       1  UNL111      0.0550
     33 H         121.2631  152.2976  148.1532 H       1  UNL111      0.0741
     34 H         120.8906  151.0059  146.9750 H       1  UNL111      0.0741
     35 H         120.8008  151.6183  144.5112 H       1  UNL111      0.0741
     36 H         121.1226  153.3173  144.0530 H       1  UNL111      0.0741
     37 H         123.1497  153.1038  145.0141 H       1  UNL111      0.0751
     38 H         123.0125  151.5727  145.9111 H       1  UNL111      0.0751
     39 H         123.3902  152.8411  148.0760 H       1  UNL111      0.0589
     40 H         123.3705  154.3635  147.2077 H       1  UNL111      0.0589
     41 H         114.3683  151.7287  145.8910 H       1  UNL111      0.0734
     42 H         114.6551  152.3456  147.5366 H       1  UNL111      0.0734
     43 H         117.0484  154.4828  147.8605 H       1  UNL111      0.1208
     44 H         115.7621  153.0869  143.9742 H       1  UNL111      0.0999
     45 H         114.2535  149.4052  146.7833 H       1  UNL111      0.0319
     46 H         113.0562  150.4591  147.5582 H       1  UNL111      0.0319
     47 H         114.5411  150.0148  148.4204 H       1  UNL111      0.0319
     48 H         125.3051  151.2455  147.8593 H       1  UNL111      0.0893
     49 H         125.3147  155.0771  145.8410 H       1  UNL111      0.0893
     50 H         114.7875  155.3169  143.5140 H       1  UNL111      0.0920
     51 H         114.9631  157.1241  145.2222 H       1  UNL111      0.1090
     52 H         127.7161  151.0260  147.4120 H       1  UNL111      0.0876
     53 H         127.7256  154.8225  145.4114 H       1  UNL111      0.0876
     54 H         128.9308  152.8042  146.1897 H       1  UNL111      0.0874
@<TRIPOS>UNITY_ATOM_ATTR
3 1
charge 1
@<TRIPOS>BOND
     1     1    21    1
     2     2    13    2
     3     3     8    1
     4     3     9    1
     5     3    10    1
     6     4     5    1
     7     4    12    1
     8     4    13   am
     9     5     6    1
    10     5     7    1
    11     6     8    1
    12     7     9    1
    13    10    11    1
    14    11    14    1
    15    12    16   ar
    16    12    17   ar
    17    13    15    1
    18    14    19   ar
    19    14    20   ar
    20    15    18    1
    21    16    21   ar
    22    17    22   ar
    23    19    24   ar
    24    20    25   ar
    25    21    23   ar
    26    22    23   ar
    27    24    26   ar
    28    25    26   ar
    29     3    27    1
    30     5    28    1
    31     6    29    1
    32     6    30    1
    33     7    31    1
    34     7    32    1
    35     8    33    1
    36     8    34    1
    37     9    35    1
    38     9    36    1
    39    10    37    1
    40    10    38    1
    41    11    39    1
    42    11    40    1
    43    15    41    1
    44    15    42    1
    45    16    43    1
    46    17    44    1
    47    18    45    1
    48    18    46    1
    49    18    47    1
    50    19    48    1
    51    20    49    1
    52    22    50    1
    53    23    51    1
    54    24    52    1
    55    25    53    1
    56    26    54    1
@<TRIPOS>MOLECULE
129597874
 52 54 0 0 0
SMALL
GASTEIGER

@<TRIPOS>ATOM
      1 F         113.0175  150.2207  146.8739 F       1  UNL111     -0.2904
      2 O         118.2788  155.7437  146.5705 O.2     1  UNL111     -0.3702
      3 N         121.5801  153.2219  146.0312 N.4     1  UNL111      0.4267
      4 N         117.3398  153.6649  146.2048 N.am    1  UNL111     -0.2834
      5 C         118.6729  153.0291  146.0585 C.3     1  UNL111      0.0192
      6 C         119.4381  153.5635  144.8376 C.3     1  UNL111     -0.0327
      7 C         119.4946  153.1299  147.3556 C.3     1  UNL111     -0.0327
      8 C         120.8338  152.9746  144.7397 C.3     1  UNL111     -0.0370
      9 C         120.8868  152.5493  147.1925 C.3     1  UNL111     -0.0370
     10 C         123.0451  152.8225  145.9039 C.3     1  UNL111     -0.0358
     11 C         123.9080  153.5143  146.9633 C.3     1  UNL111     -0.0312
     12 C         116.2159  152.7934  146.3645 C.3     1  UNL111      0.0013
     13 C         117.2755  155.0556  146.3752 C.2     1  UNL111      0.1770
     14 C         125.3584  153.1490  146.7837 C.3     1  UNL111     -0.0753
     15 C         116.0354  151.6985  145.5051 C.3     1  UNL111     -0.0398
     16 C         115.2960  152.9935  147.4067 C.3     1  UNL111     -0.0398
     17 C         115.9503  155.7120  146.1808 C.2     1  UNL111      0.0040
     18 C         125.8922  152.0251  147.4302 C.3     1  UNL111     -0.0811
     19 C         126.1836  153.9066  145.9408 C.3     1  UNL111     -0.0811
     20 C         114.9515  150.8329  145.6756 C.3     1  UNL111     -0.0166
     21 C         114.2147  152.1248  147.5776 C.3     1  UNL111     -0.0166
     22 C         114.0520  151.0536  146.7101 C.3     1  UNL111      0.0844
     23 C         127.2274  151.6684  147.2374 C.3     1  UNL111     -0.0857
     24 C         127.5181  153.5457  145.7503 C.3     1  UNL111     -0.0857
     25 C         115.7433  156.9674  146.5985 C.2     1  UNL111     -0.0894
     26 C         128.0389  152.4272  146.3971 C.3     1  UNL111     -0.0868
     27 H         121.5586  154.2414  146.1970 H       1  UNL111      0.1323
     28 H         118.5338  151.9546  145.8839 H       1  UNL111      0.0866
     29 H         119.5295  154.6542  144.8640 H       1  UNL111      0.0551
     30 H         118.8780  153.3306  143.9237 H       1  UNL111      0.0551
     31 H         118.9718  152.6011  148.1621 H       1  UNL111      0.0551
     32 H         119.5947  154.1661  147.6931 H       1  UNL111      0.0551
     33 H         120.8154  151.8929  144.5664 H       1  UNL111      0.0741
     34 H         121.3919  153.4627  143.9337 H       1  UNL111      0.0741
     35 H         121.4752  152.7326  148.0952 H       1  UNL111      0.0741
     36 H         120.8622  151.4728  146.9895 H       1  UNL111      0.0741
     37 H         123.3733  153.1270  144.9031 H       1  UNL111      0.0751
     38 H         123.0950  151.7293  145.9679 H       1  UNL111      0.0751
     39 H         123.5945  153.2384  147.9761 H       1  UNL111      0.0589
     40 H         123.7925  154.6035  146.8964 H       1  UNL111      0.0589
     41 H         116.7019  151.5251  144.6650 H       1  UNL111      0.1024
     42 H         115.4203  153.8044  148.1213 H       1  UNL111      0.1024
     43 H         115.1688  155.1723  145.6602 H       1  UNL111      0.1200
     44 H         125.2838  151.4198  148.0987 H       1  UNL111      0.0893
     45 H         125.8057  154.7899  145.4303 H       1  UNL111      0.0893
     46 H         114.7958  149.9937  145.0039 H       1  UNL111      0.1105
     47 H         113.5034  152.2737  148.3849 H       1  UNL111      0.1105
     48 H         127.6411  150.8013  147.7478 H       1  UNL111      0.0876
     49 H         128.1581  154.1404  145.1020 H       1  UNL111      0.0876
     50 H         116.5168  157.5407  147.1025 H       1  UNL111      0.0728
     51 H         114.7866  157.4551  146.4386 H       1  UNL111      0.0728
     52 H         129.0811  152.1512  146.2525 H       1  UNL111      0.0874
@<TRIPOS>UNITY_ATOM_ATTR
3 1
charge 1
@<TRIPOS>BOND
     1     1    22    1
     2     2    13    2
     3     3     8    1
     4     3     9    1
     5     3    10    1
     6     4     5    1
     7     4    12    1
     8     4    13   am
     9     5     6    1
    10     5     7    1
    11     6     8    1
    12     7     9    1
    13    10    11    1
    14    11    14    1
    15    12    15   ar
    16    12    16   ar
    17    13    17    1
    18    14    18   ar
    19    14    19   ar
    20    15    20   ar
    21    16    21   ar
    22    17    25    2
    23    18    23   ar
    24    19    24   ar
    25    20    22   ar
    26    21    22   ar
    27    23    26   ar
    28    24    26   ar
    29     3    27    1
    30     5    28    1
    31     6    29    1
    32     6    30    1
    33     7    31    1
    34     7    32    1
    35     8    33    1
    36     8    34    1
    37     9    35    1
    38     9    36    1
    39    10    37    1
    40    10    38    1
    41    11    39    1
    42    11    40    1
    43    15    41    1
    44    16    42    1
    45    17    43    1
    46    18    44    1
    47    19    45    1
    48    20    46    1
    49    21    47    1
    50    23    48    1
    51    24    49    1
    52    25    50    1
    53    25    51    1
    54    26    52    1
@<TRIPOS>MOLECULE
137700503
 58 60 0 0 0
SMALL
GASTEIGER

@<TRIPOS>ATOM
      1 O         118.0343  155.1303  146.5675 O.2     1  UNL111     -0.3697
      2 N         121.7084  153.0555  146.1557 N.4     1  UNL111      0.4267
      3 N         117.4458  152.8967  146.4794 N.am    1  UNL111     -0.2835
      4 C         118.8582  152.4711  146.3389 C.3     1  UNL111      0.0192
      5 C         119.4928  153.0128  145.0472 C.3     1  UNL111     -0.0327
      6 C         119.6948  152.8156  147.5793 C.3     1  UNL111     -0.0327
      7 C         120.9490  152.6061  144.9257 C.3     1  UNL111     -0.0370
      8 C         121.1492  152.4158  147.4049 C.3     1  UNL111     -0.0370
      9 C         123.2034  152.8175  145.9818 C.3     1  UNL111     -0.0358
     10 C         124.0287  153.6409  146.9745 C.3     1  UNL111     -0.0312
     11 C         116.4388  151.8993  146.2742 C.3     1  UNL111     -0.0035
     12 C         117.1662  154.2607  146.6484 C.2     1  UNL111      0.1789
     13 C         125.5014  153.4475  146.7207 C.3     1  UNL111     -0.0753
     14 C         116.5475  150.6411  146.8832 C.3     1  UNL111     -0.0553
     15 C         115.3434  152.1448  145.4346 C.3     1  UNL111     -0.0553
     16 C         115.7897  154.6209  147.0951 C.2     1  UNL111      0.0094
     17 C         126.1871  152.3733  147.3062 C.3     1  UNL111     -0.0811
     18 C         126.1960  154.3154  145.8669 C.3     1  UNL111     -0.0811
     19 C         115.5765  149.6589  146.6699 C.3     1  UNL111     -0.0787
     20 C         114.3748  151.1611  145.2195 C.3     1  UNL111     -0.0787
     21 C         115.1151  155.7184  146.7018 C.2     1  UNL111     -0.0853
     22 C         114.4909  149.9195  145.8382 C.3     1  UNL111     -0.0844
     23 C         127.5425  152.1734  147.0418 C.3     1  UNL111     -0.0857
     24 C         127.5517  154.1117  145.6055 C.3     1  UNL111     -0.0857
     25 C         128.2236  153.0410  146.1911 C.3     1  UNL111     -0.0868
     26 C         115.5993  156.7225  145.6916 C.3     1  UNL111     -0.0472
     27 C         113.7503  156.0148  147.2663 C.3     1  UNL111     -0.0472
     28 H         121.5704  154.0762  146.2332 H       1  UNL111      0.1323
     29 H         118.8875  151.3784  146.2401 H       1  UNL111      0.0866
     30 H         119.4366  154.1045  144.9936 H       1  UNL111      0.0551
     31 H         118.9360  152.6388  144.1792 H       1  UNL111      0.0551
     32 H         119.2788  152.3054  148.4566 H       1  UNL111      0.0551
     33 H         119.6575  153.8862  147.8060 H       1  UNL111      0.0551
     34 H         121.0692  151.5204  144.8384 H       1  UNL111      0.0741
     35 H         121.4051  153.0935  144.0575 H       1  UNL111      0.0741
     36 H         121.7339  152.7664  148.2590 H       1  UNL111      0.0741
     37 H         121.2672  151.3310  147.3057 H       1  UNL111      0.0741
     38 H         123.4542  153.1143  144.9565 H       1  UNL111      0.0751
     39 H         123.3777  151.7401  146.0843 H       1  UNL111      0.0751
     40 H         123.8097  153.3564  148.0095 H       1  UNL111      0.0589
     41 H         123.7752  154.7050  146.8906 H       1  UNL111      0.0589
     42 H         117.3584  150.4158  147.5695 H       1  UNL111      0.0993
     43 H         115.2385  153.0894  144.9058 H       1  UNL111      0.0993
     44 H         115.3514  153.9395  147.8188 H       1  UNL111      0.1230
     45 H         125.6823  151.6855  147.9810 H       1  UNL111      0.0893
     46 H         125.6982  155.1638  145.4019 H       1  UNL111      0.0893
     47 H         115.6593  148.6922  147.1616 H       1  UNL111      0.0890
     48 H         113.5306  151.3634  144.5637 H       1  UNL111      0.0890
     49 H         113.7334  149.1563  145.6735 H       1  UNL111      0.0876
     50 H         128.0736  151.3439  147.5037 H       1  UNL111      0.0876
     51 H         128.0898  154.7918  144.9487 H       1  UNL111      0.0876
     52 H         129.2816  152.8873  145.9902 H       1  UNL111      0.0874
     53 H         116.4729  156.3839  145.1294 H       1  UNL111      0.0374
     54 H         115.8514  157.6650  146.1876 H       1  UNL111      0.0374
     55 H         114.8143  156.9214  144.9537 H       1  UNL111      0.0374
     56 H         113.4366  155.2713  148.0067 H       1  UNL111      0.0374
     57 H         113.0022  156.0235  146.4669 H       1  UNL111      0.0374
     58 H         113.7483  156.9936  147.7570 H       1  UNL111      0.0374
@<TRIPOS>UNITY_ATOM_ATTR
2 1
charge 1
@<TRIPOS>BOND
     1     1    12    2
     2     2     7    1
     3     2     8    1
     4     2     9    1
     5     3     4    1
     6     3    11    1
     7     3    12   am
     8     4     5    1
     9     4     6    1
    10     5     7    1
    11     6     8    1
    12     9    10    1
    13    10    13    1
    14    11    14   ar
    15    11    15   ar
    16    12    16    1
    17    13    17   ar
    18    13    18   ar
    19    14    19   ar
    20    15    20   ar
    21    16    21    2
    22    17    23   ar
    23    18    24   ar
    24    19    22   ar
    25    20    22   ar
    26    21    26    1
    27    21    27    1
    28    23    25   ar
    29    24    25   ar
    30     2    28    1
    31     4    29    1
    32     5    30    1
    33     5    31    1
    34     6    32    1
    35     6    33    1
    36     7    34    1
    37     7    35    1
    38     8    36    1
    39     8    37    1
    40     9    38    1
    41     9    39    1
    42    10    40    1
    43    10    41    1
    44    14    42    1
    45    15    43    1
    46    16    44    1
    47    17    45    1
    48    18    46    1
    49    19    47    1
    50    20    48    1
    51    22    49    1
    52    23    50    1
    53    24    51    1
    54    25    52    1
    55    26    53    1
    56    26    54    1
    57    26    55    1
    58    27    56    1
    59    27    57    1
    60    27    58    1
@<TRIPOS>MOLECULE
165361490
 65 67 0 0 0
SMALL
GASTEIGER

@<TRIPOS>ATOM
      1 F         127.6929  152.9162  147.9305 F       1  UNL111     -0.1860
      2 F         127.5959  151.2870  146.5043 F       1  UNL111     -0.1860
      3 F         128.1131  153.2771  145.8166 F       1  UNL111     -0.1860
      4 O         115.8221  155.4273  145.5635 O.2     1  UNL111     -0.3824
      5 O         122.6608  151.1254  145.5638 O.2     1  UNL111     -0.5807
      6 O         126.2464  155.1597  146.8677 O.2     1  UNL111     -0.5755
      7 N         119.3010  153.4257  146.7540 N.4     1  UNL111      0.4269
      8 N         115.0480  153.4545  146.4535 N.am    1  UNL111     -0.2907
      9 C         116.4224  152.9931  146.7659 C.3     1  UNL111      0.0176
     10 C         117.2655  152.8177  145.4911 C.3     1  UNL111     -0.0330
     11 C         117.1111  153.8891  147.8068 C.3     1  UNL111     -0.0330
     12 C         118.6933  152.4141  145.8083 C.3     1  UNL111     -0.0370
     13 C         118.5450  153.4622  148.0614 C.3     1  UNL111     -0.0370
     14 C         120.7881  153.1856  146.9824 C.3     1  UNL111     -0.0331
     15 C         121.6197  153.6830  145.7950 C.3     1  UNL111     -0.0146
     16 C         113.9943  152.5106  146.6385 C.3     1  UNL111     -0.0054
     17 C         114.8594  154.7338  145.9084 C.2     1  UNL111      0.1497
     18 C         123.0900  153.3948  146.0004 C.3     1  UNL111     -0.0026
     19 C         113.4377  155.2803  145.8227 C.3     1  UNL111      0.0336
     20 C         113.0966  152.2255  145.6030 C.3     1  UNL111     -0.0556
     21 C         113.8735  151.8145  147.8489 C.3     1  UNL111     -0.0556
     22 C         123.5874  152.0865  145.8772 C.3     1  UNL111      0.0522
     23 C         123.9675  154.4446  146.3268 C.3     1  UNL111     -0.0013
     24 C         113.4172  156.8011  145.7846 C.3     1  UNL111     -0.0446
     25 C         112.0833  151.2805  145.7823 C.3     1  UNL111     -0.0787
     26 C         112.8576  150.8726  148.0283 C.3     1  UNL111     -0.0787
     27 C         125.3287  154.2030  146.5372 C.3     1  UNL111      0.0854
     28 C         124.9439  151.8455  146.0977 C.3     1  UNL111      0.0308
     29 C         125.8234  152.8957  146.4296 C.3     1  UNL111      0.1436
     30 C         111.9622  150.6074  146.9953 C.3     1  UNL111     -0.0844
     31 C         127.2886  152.6082  146.6676 C.3     1  UNL111      0.3804
     32 C         123.1650  149.8421  145.1961 C.3     1  UNL111      0.0298
     33 C         125.8429  156.5231  146.8229 C.3     1  UNL111      0.0307
     34 H         119.2035  154.3588  146.3233 H       1  UNL111      0.1323
     35 H         116.3598  151.9920  147.2135 H       1  UNL111      0.0863
     36 H         117.2942  153.7343  144.8939 H       1  UNL111      0.0550
     37 H         116.8052  152.0558  144.8498 H       1  UNL111      0.0550
     38 H         116.5483  153.8590  148.7478 H       1  UNL111      0.0550
     39 H         117.1173  154.9385  147.4945 H       1  UNL111      0.0550
     40 H         118.7454  151.4314  146.2902 H       1  UNL111      0.0741
     41 H         119.2901  152.3985  144.8928 H       1  UNL111      0.0741
     42 H         119.0430  154.1873  148.7136 H       1  UNL111      0.0741
     43 H         118.6066  152.4653  148.5119 H       1  UNL111      0.0741
     44 H         120.9133  152.1183  147.1926 H       1  UNL111      0.0754
     45 H         121.0712  153.7462  147.8812 H       1  UNL111      0.0754
     46 H         121.4629  154.7613  145.6645 H       1  UNL111      0.0625
     47 H         121.3022  153.2237  144.8524 H       1  UNL111      0.0625
     48 H         112.8557  154.9476  146.6879 H       1  UNL111      0.0734
     49 H         112.9694  154.9065  144.9081 H       1  UNL111      0.0734
     50 H         113.1908  152.6989  144.6295 H       1  UNL111      0.0993
     51 H         114.5357  152.0227  148.6842 H       1  UNL111      0.0993
     52 H         123.5694  155.4515  146.4143 H       1  UNL111      0.1170
     53 H         113.9080  157.2219  146.6684 H       1  UNL111      0.0319
     54 H         112.3861  157.1670  145.7569 H       1  UNL111      0.0319
     55 H         113.9362  157.1816  144.8986 H       1  UNL111      0.0319
     56 H         111.3907  151.0643  144.9716 H       1  UNL111      0.0890
     57 H         112.7563  150.3513  148.9775 H       1  UNL111      0.0890
     58 H         125.3543  150.8407  146.0249 H       1  UNL111      0.1246
     59 H         111.1693  149.8756  147.1349 H       1  UNL111      0.0876
     60 H         122.3172  149.2364  144.8622 H       1  UNL111      0.1069
     61 H         123.6147  149.3390  146.0581 H       1  UNL111      0.1069
     62 H         123.8718  149.9155  144.3628 H       1  UNL111      0.1069
     63 H         126.7230  157.1395  147.0297 H       1  UNL111      0.1070
     64 H         125.0975  156.7350  147.5961 H       1  UNL111      0.1070
     65 H         125.4705  156.7937  145.8294 H       1  UNL111      0.1070
@<TRIPOS>UNITY_ATOM_ATTR
7 1
charge 1
@<TRIPOS>BOND
     1     1    31    1
     2     2    31    1
     3     3    31    1
     4     4    17    2
     5     5    22    1
     6     5    32    1
     7     6    27    1
     8     6    33    1
     9     7    12    1
    10     7    13    1
    11     7    14    1
    12     8     9    1
    13     8    16    1
    14     8    17   am
    15     9    10    1
    16     9    11    1
    17    10    12    1
    18    11    13    1
    19    14    15    1
    20    15    18    1
    21    16    20   ar
    22    16    21   ar
    23    17    19    1
    24    18    22   ar
    25    18    23   ar
    26    19    24    1
    27    20    25   ar
    28    21    26   ar
    29    22    28   ar
    30    23    27   ar
    31    25    30   ar
    32    26    30   ar
    33    27    29   ar
    34    28    29   ar
    35    29    31    1
    36     7    34    1
    37     9    35    1
    38    10    36    1
    39    10    37    1
    40    11    38    1
    41    11    39    1
    42    12    40    1
    43    12    41    1
    44    13    42    1
    45    13    43    1
    46    14    44    1
    47    14    45    1
    48    15    46    1
    49    15    47    1
    50    19    48    1
    51    19    49    1
    52    20    50    1
    53    21    51    1
    54    23    52    1
    55    24    53    1
    56    24    54    1
    57    24    55    1
    58    25    56    1
    59    26    57    1
    60    28    58    1
    61    30    59    1
    62    32    60    1
    63    32    61    1
    64    32    62    1
    65    33    63    1
    66    33    64    1
    67    33    65    1
@<TRIPOS>MOLECULE
137700090
 55 57 0 0 0
SMALL
GASTEIGER

@<TRIPOS>ATOM
      1 O         118.0077  155.4323  146.3351 O.2     1  UNL111     -0.3688
      2 N         121.4896  153.0791  146.1590 N.4     1  UNL111      0.4267
      3 N         117.2411  153.2621  146.5394 N.am    1  UNL111     -0.2830
      4 C         118.6136  152.7098  146.4436 C.3     1  UNL111      0.0193
      5 C         119.2606  153.0249  145.0842 C.3     1  UNL111     -0.0327
      6 C         119.4959  153.1452  147.6237 C.3     1  UNL111     -0.0327
      7 C         120.6872  152.5151  145.0068 C.3     1  UNL111     -0.0370
      8 C         120.9183  152.6340  147.4845 C.3     1  UNL111     -0.0370
      9 C         122.9687  152.7473  146.0069 C.3     1  UNL111     -0.0358
     10 C         123.8439  153.6823  146.8466 C.3     1  UNL111     -0.0312
     11 C         116.1562  152.3402  146.3793 C.3     1  UNL111     -0.0034
     12 C         117.0807  154.6543  146.5736 C.2     1  UNL111      0.1797
     13 C         125.3030  153.3782  146.6265 C.3     1  UNL111     -0.0753
     14 C         115.0989  152.6179  145.5025 C.3     1  UNL111     -0.0553
     15 C         116.1486  151.1206  147.0717 C.3     1  UNL111     -0.0553
     16 C         115.7671  155.2324  147.0005 C.2     1  UNL111      0.0050
     17 C         125.9526  152.4134  147.4097 C.3     1  UNL111     -0.0811
     18 C         126.0201  154.0289  145.6129 C.3     1  UNL111     -0.0811
     19 C         114.0554  151.7045  145.3302 C.3     1  UNL111     -0.0787
     20 C         115.1029  150.2091  146.9015 C.3     1  UNL111     -0.0787
     21 C         115.2501  156.3639  146.1677 C.3     1  UNL111     -0.0232
     22 C         114.0573  150.5014  146.0304 C.3     1  UNL111     -0.0844
     23 C         115.1702  154.8112  148.1276 C.2     1  UNL111     -0.0867
     24 C         127.2952  152.1080  147.1829 C.3     1  UNL111     -0.0857
     25 C         127.3626  153.7200  145.3893 C.3     1  UNL111     -0.0857
     26 C         127.9988  152.7597  146.1727 C.3     1  UNL111     -0.0868
     27 H         121.4027  154.1070  146.1048 H       1  UNL111      0.1323
     28 H         118.5592  151.6152  146.4934 H       1  UNL111      0.0867
     29 H         119.2697  154.0998  144.8788 H       1  UNL111      0.0551
     30 H         118.6674  152.5705  144.2810 H       1  UNL111      0.0551
     31 H         119.0637  152.7730  148.5607 H       1  UNL111      0.0551
     32 H         119.5328  154.2351  147.7208 H       1  UNL111      0.0551
     33 H         120.7408  151.4224  145.0661 H       1  UNL111      0.0741
     34 H         121.1575  152.8526  144.0772 H       1  UNL111      0.0741
     35 H         121.5413  153.0478  148.2815 H       1  UNL111      0.0741
     36 H         120.9668  151.5399  147.5189 H       1  UNL111      0.0741
     37 H         123.2142  152.8655  144.9449 H       1  UNL111      0.0751
     38 H         123.0987  151.6932  146.2782 H       1  UNL111      0.0751
     39 H         123.6196  153.5875  147.9146 H       1  UNL111      0.0589
     40 H         123.6423  154.7288  146.5857 H       1  UNL111      0.0589
     41 H         115.0810  153.5297  144.9122 H       1  UNL111      0.0993
     42 H         116.9246  150.8770  147.7912 H       1  UNL111      0.0993
     43 H         125.4299  151.8954  148.2109 H       1  UNL111      0.0893
     44 H         125.5507  154.7888  144.9916 H       1  UNL111      0.0893
     45 H         113.2416  151.9316  144.6451 H       1  UNL111      0.0890
     46 H         115.0962  149.2746  147.4579 H       1  UNL111      0.0890
     47 H         115.1234  156.0474  145.1275 H       1  UNL111      0.0438
     48 H         115.9447  157.2099  146.1898 H       1  UNL111      0.0438
     49 H         114.2786  156.7211  146.5256 H       1  UNL111      0.0438
     50 H         113.2413  149.7941  145.8995 H       1  UNL111      0.0876
     51 H         115.5893  154.0249  148.7470 H       1  UNL111      0.0743
     52 H         114.2377  155.2528  148.4671 H       1  UNL111      0.0743
     53 H         127.7988  151.3653  147.7980 H       1  UNL111      0.0876
     54 H         127.9186  154.2327  144.6072 H       1  UNL111      0.0876
     55 H         129.0470  152.5247  146.0008 H       1  UNL111      0.0874
@<TRIPOS>UNITY_ATOM_ATTR
2 1
charge 1
@<TRIPOS>BOND
     1     1    12    2
     2     2     7    1
     3     2     8    1
     4     2     9    1
     5     3     4    1
     6     3    11    1
     7     3    12   am
     8     4     5    1
     9     4     6    1
    10     5     7    1
    11     6     8    1
    12     9    10    1
    13    10    13    1
    14    11    14   ar
    15    11    15   ar
    16    12    16    1
    17    13    17   ar
    18    13    18   ar
    19    14    19   ar
    20    15    20   ar
    21    16    21    1
    22    16    23    2
    23    17    24   ar
    24    18    25   ar
    25    19    22   ar
    26    20    22   ar
    27    24    26   ar
    28    25    26   ar
    29     2    27    1
    30     4    28    1
    31     5    29    1
    32     5    30    1
    33     6    31    1
    34     6    32    1
    35     7    33    1
    36     7    34    1
    37     8    35    1
    38     8    36    1
    39     9    37    1
    40     9    38    1
    41    10    39    1
    42    10    40    1
    43    14    41    1
    44    15    42    1
    45    17    43    1
    46    18    44    1
    47    19    45    1
    48    20    46    1
    49    21    47    1
    50    21    48    1
    51    21    49    1
    52    22    50    1
    53    23    51    1
    54    23    52    1
    55    24    53    1
    56    25    54    1
    57    26    55    1
@<TRIPOS>MOLECULE
62281
 57 59 0 0 0
SMALL
GASTEIGER

@<TRIPOS>ATOM
      1 O         116.2880  150.5249  146.9943 O.2     1  UNL111     -0.3824
      2 N         121.0403  152.6433  146.0900 N.4     1  UNL111      0.4271
      3 N         116.7334  152.6469  146.2422 N.am    1  UNL111     -0.2907
      4 C         118.1479  152.2781  146.0442 C.3     1  UNL111      0.0176
      5 C         118.8836  153.0375  144.9321 C.3     1  UNL111     -0.0328
      6 C         118.9353  152.3704  147.3613 C.3     1  UNL111     -0.0328
      7 C         120.3044  152.5163  144.7703 C.3     1  UNL111     -0.0365
      8 C         120.3542  151.8548  147.1862 C.3     1  UNL111     -0.0365
      9 C         122.5574  152.3919  145.9481 C.3     1  UNL111     -0.0366
     10 C         123.2997  153.0121  147.1537 C.3     1  UNL111     -0.0297
     11 C         122.8556  150.9031  145.7693 C.3     1  UNL111     -0.0589
     12 C         116.3740  154.0174  146.2489 C.3     1  UNL111     -0.0054
     13 C         115.8687  151.6542  146.7288 C.2     1  UNL111      0.1497
     14 C         124.7730  153.1987  146.8906 C.3     1  UNL111     -0.0745
     15 C         114.3997  152.0267  146.8958 C.3     1  UNL111      0.0336
     16 C         116.2335  154.7004  147.4616 C.3     1  UNL111     -0.0556
     17 C         116.1516  154.6867  145.0425 C.3     1  UNL111     -0.0556
     18 C         125.7083  152.2847  147.3952 C.3     1  UNL111     -0.0810
     19 C         125.2259  154.2821  146.1234 C.3     1  UNL111     -0.0810
     20 C         113.5209  150.8064  147.1169 C.3     1  UNL111     -0.0446
     21 C         115.8889  156.0523  147.4643 C.3     1  UNL111     -0.0787
     22 C         115.8062  156.0387  145.0491 C.3     1  UNL111     -0.0787
     23 C         127.0688  152.4484  147.1309 C.3     1  UNL111     -0.0857
     24 C         126.5873  154.4423  145.8619 C.3     1  UNL111     -0.0857
     25 C         115.6788  156.7209  146.2588 C.3     1  UNL111     -0.0844
     26 C         127.5074  153.5250  146.3636 C.3     1  UNL111     -0.0868
     27 H         120.9644  153.6368  146.3520 H       1  UNL111      0.1335
     28 H         118.1503  151.2215  145.7405 H       1  UNL111      0.0863
     29 H         118.9241  154.1112  145.1520 H       1  UNL111      0.0551
     30 H         118.3510  152.9206  143.9813 H       1  UNL111      0.0551
     31 H         118.4391  151.7886  148.1469 H       1  UNL111      0.0551
     32 H         118.9627  153.4087  147.7151 H       1  UNL111      0.0551
     33 H         120.3166  151.4632  144.4728 H       1  UNL111      0.0743
     34 H         120.8457  153.1143  144.0302 H       1  UNL111      0.0743
     35 H         120.9230  151.9945  148.1091 H       1  UNL111      0.0743
     36 H         120.3635  150.7977  146.9020 H       1  UNL111      0.0743
     37 H         122.8479  152.9270  145.0357 H       1  UNL111      0.0798
     38 H         123.1627  152.3973  148.0518 H       1  UNL111      0.0601
     39 H         122.8754  153.9949  147.3979 H       1  UNL111      0.0601
     40 H         122.6570  150.3352  146.6839 H       1  UNL111      0.0404
     41 H         123.9095  150.7508  145.5142 H       1  UNL111      0.0404
     42 H         122.2679  150.4634  144.9585 H       1  UNL111      0.0404
     43 H         114.0551  152.5527  145.9993 H       1  UNL111      0.0734
     44 H         114.2983  152.6939  147.7572 H       1  UNL111      0.0734
     45 H         116.3854  154.1906  148.4097 H       1  UNL111      0.0993
     46 H         116.2150  154.1608  144.0938 H       1  UNL111      0.0993
     47 H         125.3952  151.4380  148.0026 H       1  UNL111      0.0894
     48 H         124.5322  155.0208  145.7287 H       1  UNL111      0.0894
     49 H         113.6043  150.1059  146.2794 H       1  UNL111      0.0319
     50 H         112.4721  151.1047  147.2113 H       1  UNL111      0.0319
     51 H         113.8073  150.2742  148.0300 H       1  UNL111      0.0319
     52 H         115.7716  156.5845  148.4059 H       1  UNL111      0.0890
     53 H         115.6189  156.5594  144.1125 H       1  UNL111      0.0890
     54 H         127.7916  151.7387  147.5279 H       1  UNL111      0.0876
     55 H         126.9360  155.2873  145.2719 H       1  UNL111      0.0876
     56 H         115.3982  157.7724  146.2627 H       1  UNL111      0.0876
     57 H         128.5689  153.6534  146.1634 H       1  UNL111      0.0874
@<TRIPOS>UNITY_ATOM_ATTR
2 1
charge 1
@<TRIPOS>BOND
     1     1    13    2
     2     2     7    1
     3     2     8    1
     4     2     9    1
     5     3     4    1
     6     3    12    1
     7     3    13   am
     8     4     5    1
     9     4     6    1
    10     5     7    1
    11     6     8    1
    12     9    10    1
    13     9    11    1
    14    10    14    1
    15    12    16   ar
    16    12    17   ar
    17    13    15    1
    18    14    18   ar
    19    14    19   ar
    20    15    20    1
    21    16    21   ar
    22    17    22   ar
    23    18    23   ar
    24    19    24   ar
    25    21    25   ar
    26    22    25   ar
    27    23    26   ar
    28    24    26   ar
    29     2    27    1
    30     4    28    1
    31     5    29    1
    32     5    30    1
    33     6    31    1
    34     6    32    1
    35     7    33    1
    36     7    34    1
    37     8    35    1
    38     8    36    1
    39     9    37    1
    40    10    38    1
    41    10    39    1
    42    11    40    1
    43    11    41    1
    44    11    42    1
    45    15    43    1
    46    15    44    1
    47    16    45    1
    48    17    46    1
    49    18    47    1
    50    19    48    1
    51    20    49    1
    52    20    50    1
    53    20    51    1
    54    21    52    1
    55    22    53    1
    56    23    54    1
    57    24    55    1
    58    25    56    1
    59    26    57    1
@<TRIPOS>MOLECULE
70412
 44 46 0 0 0
SMALL
GASTEIGER

@<TRIPOS>ATOM
      1 N         118.2402  154.1494  146.8445 N.4     1  UNL111      0.4303
      2 N         122.3800  153.5030  147.4641 N.pl3   1  UNL111     -0.3774
      3 N         121.6460  155.6628  144.7509 N.1     1  UNL111     -0.2813
      4 C         121.1934  154.0337  146.7795 C.3     1  UNL111      0.1146
      5 C         120.2984  152.8716  146.3054 C.3     1  UNL111     -0.0048
      6 C         120.4013  154.8535  147.8272 C.3     1  UNL111     -0.0048
      7 C         118.9466  153.3394  145.7865 C.3     1  UNL111     -0.0293
      8 C         119.0514  155.3273  147.3086 C.3     1  UNL111     -0.0293
      9 C         116.8501  154.5896  146.3973 C.3     1  UNL111     -0.0143
     10 C         121.5298  154.9372  145.6482 C.1     1  UNL111      0.0711
     11 C         115.8879  153.4412  146.2695 C.ar    1  UNL111     -0.0704
     12 C         123.3839  152.6955  146.9567 C.ar    1  UNL111     -0.0171
     13 C         115.4955  152.9769  145.0047 C.ar    1  UNL111     -0.0746
     14 C         115.3877  152.8005  147.4147 C.ar    1  UNL111     -0.0746
     15 C         124.2708  152.0997  147.8694 C.ar    1  UNL111     -0.0581
     16 C         123.5446  152.3689  145.6068 C.ar    1  UNL111     -0.0581
     17 C         114.6290  151.8893  144.8895 C.ar    1  UNL111     -0.0834
     18 C         114.5213  151.7134  147.2936 C.ar    1  UNL111     -0.0834
     19 C         125.2838  151.2305  147.4528 C.ar    1  UNL111     -0.0791
     20 C         124.5592  151.5013  145.1817 C.ar    1  UNL111     -0.0791
     21 C         114.1452  151.2572  146.0325 C.ar    1  UNL111     -0.0861
     22 C         125.4284  150.9314  146.1046 C.ar    1  UNL111     -0.0845
     23 H         118.0727  153.5278  147.6486 H       1  UNL111      0.1352
     24 H         122.5964  153.8846  148.3826 H       1  UNL111      0.1922
     25 H         120.1378  152.1681  147.1344 H       1  UNL111      0.0644
     26 H         120.7788  152.2932  145.5086 H       1  UNL111      0.0644
     27 H         120.9839  155.7268  148.1508 H       1  UNL111      0.0644
     28 H         120.2402  154.2456  148.7289 H       1  UNL111      0.0644
     29 H         119.0328  153.9608  144.8887 H       1  UNL111      0.0757
     30 H         118.3253  152.4681  145.5592 H       1  UNL111      0.0757
     31 H         118.4908  155.8113  148.1157 H       1  UNL111      0.0757
     32 H         119.1400  156.0266  146.4704 H       1  UNL111      0.0757
     33 H         116.9679  155.1387  145.4557 H       1  UNL111      0.0876
     34 H         116.4722  155.2902  147.1517 H       1  UNL111      0.0876
     35 H         115.8498  153.4545  144.0925 H       1  UNL111      0.0924
     36 H         115.6472  153.1436  148.4143 H       1  UNL111      0.0924
     37 H         124.1822  152.3018  148.9347 H       1  UNL111      0.0988
     38 H         122.9170  152.7939  144.8318 H       1  UNL111      0.0988
     39 H         114.3214  151.5350  143.9072 H       1  UNL111      0.0880
     40 H         114.1270  151.2230  148.1819 H       1  UNL111      0.0880
     41 H         125.9574  150.7889  148.1832 H       1  UNL111      0.0890
     42 H         124.6742  151.2774  144.1235 H       1  UNL111      0.0890
     43 H         113.4638  150.4135  145.9398 H       1  UNL111      0.0874
     44 H         126.2172  150.2604  145.7736 H       1  UNL111      0.0876
@<TRIPOS>UNITY_ATOM_ATTR
1 1
charge 1
@<TRIPOS>BOND
     1     1     7    1
     2     1     8    1
     3     1     9    1
     4     2     4    1
     5     2    12    1
     6     3    10    3
     7     4     5    1
     8     4     6    1
     9     4    10    1
    10     5     7    1
    11     6     8    1
    12     9    11    1
    13    11    13   ar
    14    11    14   ar
    15    12    15   ar
    16    12    16   ar
    17    13    17   ar
    18    14    18   ar
    19    15    19   ar
    20    16    20   ar
    21    17    21   ar
    22    18    21   ar
    23    19    22   ar
    24    20    22   ar
    25     1    23    1
    26     2    24    1
    27     5    25    1
    28     5    26    1
    29     6    27    1
    30     6    28    1
    31     7    29    1
    32     7    30    1
    33     8    31    1
    34     8    32    1
    35     9    33    1
    36     9    34    1
    37    13    35    1
    38    14    36    1
    39    15    37    1
    40    16    38    1
    41    17    39    1
    42    18    40    1
    43    19    41    1
    44    20    42    1
    45    21    43    1
    46    22    44    1
@<TRIPOS>MOLECULE
13653684
 55 58 0 0 0
SMALL
GASTEIGER

@<TRIPOS>ATOM
      1 O         117.2799  150.6181  145.7216 O.2     1  UNL111     -0.3622
      2 O         113.2540  152.3951  146.8892 O.2     1  UNL111     -0.5488
      3 N         121.9298  152.8919  146.2359 N.4     1  UNL111      0.4267
      4 N         117.6108  152.7424  146.5436 N.am    1  UNL111     -0.2787
      5 C         119.0613  152.4502  146.5838 C.3     1  UNL111      0.0199
      6 C         119.7001  152.5893  145.1917 C.3     1  UNL111     -0.0327
      7 C         119.8913  153.2251  147.6135 C.3     1  UNL111     -0.0327
      8 C         121.1409  152.1101  145.2042 C.3     1  UNL111     -0.0370
      9 C         121.3354  152.7414  147.6193 C.3     1  UNL111     -0.0370
     10 C         123.4072  152.5099  146.1824 C.3     1  UNL111     -0.0358
     11 C         124.2841  153.5800  146.8388 C.3     1  UNL111     -0.0312
     12 C         117.1960  154.0998  146.4029 C.3     1  UNL111     -0.0028
     13 C         116.7799  151.6675  146.1344 C.2     1  UNL111      0.2079
     14 C         125.7436  153.2525  146.6627 C.3     1  UNL111     -0.0753
     15 C         116.6435  154.5470  145.1948 C.3     1  UNL111     -0.0552
     16 C         117.3198  154.9960  147.4698 C.3     1  UNL111     -0.0552
     17 C         115.3291  151.7887  146.2327 C.3     1  UNL111      0.1026
     18 C         126.4145  152.4666  147.6101 C.3     1  UNL111     -0.0811
     19 C         126.4409  153.7008  145.5318 C.3     1  UNL111     -0.0811
     20 C         116.2416  155.8763  145.0530 C.3     1  UNL111     -0.0787
     21 C         116.9145  156.3247  147.3260 C.3     1  UNL111     -0.0787
     22 C         114.3620  151.0194  145.5143 C.3     1  UNL111      0.0111
     23 C         114.5846  152.5924  147.0741 C.3     1  UNL111      0.0610
     24 C         116.3804  156.7647  146.1169 C.3     1  UNL111     -0.0844
     25 C         127.7588  152.1387  147.4294 C.3     1  UNL111     -0.0857
     26 C         127.7848  153.3696  145.3548 C.3     1  UNL111     -0.0857
     27 C         113.1241  151.4367  145.9394 C.3     1  UNL111      0.0317
     28 C         128.4426  152.5886  146.3023 C.3     1  UNL111     -0.0868
     29 H         121.8715  153.8847  145.9660 H       1  UNL111      0.1323
     30 H         119.1484  151.3934  146.8749 H       1  UNL111      0.0867
     31 H         119.6624  153.6351  144.8608 H       1  UNL111      0.0551
     32 H         119.1407  152.0103  144.4480 H       1  UNL111      0.0551
     33 H         119.4655  153.0940  148.6149 H       1  UNL111      0.0551
     34 H         119.8904  154.2984  147.3924 H       1  UNL111      0.0551
     35 H         121.2212  151.0475  145.4593 H       1  UNL111      0.0741
     36 H         121.6072  152.2892  144.2298 H       1  UNL111      0.0741
     37 H         121.9273  153.3497  148.3081 H       1  UNL111      0.0741
     38 H         121.4143  151.6863  147.9039 H       1  UNL111      0.0741
     39 H         123.6696  152.4119  145.1224 H       1  UNL111      0.0751
     40 H         123.5128  151.5290  146.6600 H       1  UNL111      0.0751
     41 H         124.0654  153.6696  147.9087 H       1  UNL111      0.0589
     42 H         124.0755  154.5651  146.4026 H       1  UNL111      0.0589
     43 H         116.5229  153.8748  144.3484 H       1  UNL111      0.0993
     44 H         117.6793  154.6670  148.4402 H       1  UNL111      0.0993
     45 H         125.9079  152.1079  148.5035 H       1  UNL111      0.0893
     46 H         125.9549  154.3189  144.7800 H       1  UNL111      0.0893
     47 H         115.8076  156.2173  144.1153 H       1  UNL111      0.0890
     48 H         116.9925  157.0141  148.1639 H       1  UNL111      0.0890
     49 H         114.5569  150.2525  144.7766 H       1  UNL111      0.1190
     50 H         114.8295  153.3209  147.8341 H       1  UNL111      0.1831
     51 H         116.0524  157.7967  146.0093 H       1  UNL111      0.0876
     52 H         128.2793  151.5360  148.1707 H       1  UNL111      0.0876
     53 H         128.3252  153.7250  144.4799 H       1  UNL111      0.0876
     54 H         112.1093  151.1587  145.6884 H       1  UNL111      0.1745
     55 H         129.4919  152.3363  146.1657 H       1  UNL111      0.0874
@<TRIPOS>UNITY_ATOM_ATTR
3 1
charge 1
@<TRIPOS>BOND
     1     1    13    2
     2     2    23   ar
     3     2    27   ar
     4     3     8    1
     5     3     9    1
     6     3    10    1
     7     4     5    1
     8     4    12    1
     9     4    13   am
    10     5     6    1
    11     5     7    1
    12     6     8    1
    13     7     9    1
    14    10    11    1
    15    11    14    1
    16    12    15   ar
    17    12    16   ar
    18    13    17    1
    19    14    18   ar
    20    14    19   ar
    21    15    20   ar
    22    16    21   ar
    23    17    22   ar
    24    17    23   ar
    25    18    25   ar
    26    19    26   ar
    27    20    24   ar
    28    21    24   ar
    29    22    27   ar
    30    25    28   ar
    31    26    28   ar
    32     3    29    1
    33     5    30    1
    34     6    31    1
    35     6    32    1
    36     7    33    1
    37     7    34    1
    38     8    35    1
    39     8    36    1
    40     9    37    1
    41     9    38    1
    42    10    39    1
    43    10    40    1
    44    11    41    1
    45    11    42    1
    46    15    43    1
    47    16    44    1
    48    18    45    1
    49    19    46    1
    50    20    47    1
    51    21    48    1
    52    22    49    1
    53    23    50    1
    54    24    51    1
    55    25    52    1
    56    26    53    1
    57    27    54    1
    58    28    55    1
@<TRIPOS>MOLECULE
86143852
 55 57 0 0 0
SMALL
GASTEIGER

@<TRIPOS>ATOM
      1 O         117.9570  155.4200  146.9135 O.2     1  UNL111     -0.3682
      2 O         115.5686  156.5505  147.2224 O.3     1  UNL111     -0.4248
      3 N         121.4830  153.1795  146.1338 N.4     1  UNL111      0.4267
      4 N         117.2136  153.3045  146.4007 N.am    1  UNL111     -0.2823
      5 C         118.5941  152.8012  146.1990 C.3     1  UNL111      0.0192
      6 C         119.4306  152.8823  147.4869 C.3     1  UNL111     -0.0328
      7 C         119.2933  153.4850  145.0155 C.3     1  UNL111     -0.0328
      8 C         120.8525  152.3985  147.2645 C.3     1  UNL111     -0.0370
      9 C         120.7173  152.9876  144.8438 C.3     1  UNL111     -0.0370
     10 C         122.9597  152.8520  145.9445 C.3     1  UNL111     -0.0358
     11 C         123.8258  153.5344  147.0071 C.3     1  UNL111     -0.0312
     12 C         116.1750  152.3297  146.4009 C.3     1  UNL111     -0.0036
     13 C         117.0048  154.6559  146.6962 C.2     1  UNL111      0.1836
     14 C         115.5802  155.2550  146.6176 C.3     1  UNL111      0.0999
     15 C         125.2819  153.2253  146.7743 C.3     1  UNL111     -0.0753
     16 C         115.3091  152.2074  147.4933 C.3     1  UNL111     -0.0554
     17 C         116.0472  151.4369  145.3287 C.3     1  UNL111     -0.0554
     18 C         115.1493  155.4074  145.1667 C.3     1  UNL111     -0.0183
     19 C         125.8877  152.1366  147.4172 C.3     1  UNL111     -0.0811
     20 C         126.0390  153.9973  145.8816 C.3     1  UNL111     -0.0811
     21 C         114.3100  151.2313  147.4976 C.3     1  UNL111     -0.0787
     22 C         115.0467  150.4626  145.3339 C.3     1  UNL111     -0.0787
     23 C         114.1768  150.3626  146.4169 C.3     1  UNL111     -0.0844
     24 C         127.2261  151.8277  147.1709 C.3     1  UNL111     -0.0857
     25 C         127.3766  153.6836  145.6370 C.3     1  UNL111     -0.0857
     26 C         127.9688  152.5991  146.2800 C.3     1  UNL111     -0.0868
     27 H         116.4412  156.9516  147.0420 H       1  UNL111      0.2446
     28 H         121.4235  154.1827  146.3707 H       1  UNL111      0.1323
     29 H         118.5380  151.7324  145.9507 H       1  UNL111      0.0865
     30 H         118.9583  152.2771  148.2705 H       1  UNL111      0.0551
     31 H         119.4730  153.9035  147.8785 H       1  UNL111      0.0551
     32 H         119.3200  154.5727  145.1386 H       1  UNL111      0.0551
     33 H         118.7276  153.2981  144.0947 H       1  UNL111      0.0551
     34 H         121.4495  152.5627  148.1654 H       1  UNL111      0.0741
     35 H         120.8864  151.3367  146.9961 H       1  UNL111      0.0741
     36 H         120.7553  151.9227  144.5887 H       1  UNL111      0.0741
     37 H         121.2261  153.5670  144.0663 H       1  UNL111      0.0741
     38 H         123.2424  153.2143  144.9491 H       1  UNL111      0.0751
     39 H         123.0595  151.7604  145.9565 H       1  UNL111      0.0751
     40 H         123.5463  153.2118  148.0161 H       1  UNL111      0.0589
     41 H         123.6741  154.6209  146.9828 H       1  UNL111      0.0589
     42 H         114.8529  154.6617  147.1671 H       1  UNL111      0.1346
     43 H         115.4126  152.8434  148.3697 H       1  UNL111      0.0993
     44 H         116.6919  151.5101  144.4575 H       1  UNL111      0.0993
     45 H         115.8622  156.0283  144.6122 H       1  UNL111      0.0448
     46 H         114.1777  155.9090  145.1054 H       1  UNL111      0.0448
     47 H         115.0760  154.4422  144.6581 H       1  UNL111      0.0448
     48 H         125.3338  151.5216  148.1231 H       1  UNL111      0.0893
     49 H         125.6047  154.8550  145.3724 H       1  UNL111      0.0893
     50 H         113.6364  151.1449  148.3477 H       1  UNL111      0.0890
     51 H         114.9368  149.7860  144.4893 H       1  UNL111      0.0890
     52 H         113.3943  149.6066  146.4200 H       1  UNL111      0.0876
     53 H         127.6958  150.9877  147.6783 H       1  UNL111      0.0876
     54 H         127.9632  154.2884  144.9487 H       1  UNL111      0.0876
     55 H         129.0134  152.3596  146.0928 H       1  UNL111      0.0874
@<TRIPOS>UNITY_ATOM_ATTR
3 1
charge 1
@<TRIPOS>BOND
     1     1    13    2
     2     2    14    1
     3     3     8    1
     4     3     9    1
     5     3    10    1
     6     4     5    1
     7     4    12    1
     8     4    13   am
     9     5     6    1
    10     5     7    1
    11     6     8    1
    12     7     9    1
    13    10    11    1
    14    11    15    1
    15    12    16   ar
    16    12    17   ar
    17    13    14    1
    18    14    18    1
    19    15    19   ar
    20    15    20   ar
    21    16    21   ar
    22    17    22   ar
    23    19    24   ar
    24    20    25   ar
    25    21    23   ar
    26    22    23   ar
    27    24    26   ar
    28    25    26   ar
    29     2    27    1
    30     3    28    1
    31     5    29    1
    32     6    30    1
    33     6    31    1
    34     7    32    1
    35     7    33    1
    36     8    34    1
    37     8    35    1
    38     9    36    1
    39     9    37    1
    40    10    38    1
    41    10    39    1
    42    11    40    1
    43    11    41    1
    44    14    42    1
    45    16    43    1
    46    17    44    1
    47    18    45    1
    48    18    46    1
    49    18    47    1
    50    19    48    1
    51    20    49    1
    52    21    50    1
    53    22    51    1
    54    23    52    1
    55    24    53    1
    56    25    54    1
    57    26    55    1
@<TRIPOS>MOLECULE
137700067
 60 62 0 0 0
SMALL
GASTEIGER

@<TRIPOS>ATOM
      1 O         118.1197  151.1667  145.7188 O.2     1  UNL111     -0.3819
      2 N         121.6788  153.1591  146.6882 N.4     1  UNL111      0.4267
      3 N         117.4205  153.2366  146.4311 N.am    1  UNL111     -0.2905
      4 C         118.8129  153.6780  146.6870 C.3     1  UNL111      0.0176
      5 C         119.4859  152.8576  147.7980 C.3     1  UNL111     -0.0330
      6 C         119.6451  153.7075  145.3939 C.3     1  UNL111     -0.0330
      7 C         120.9347  153.2620  148.0008 C.3     1  UNL111     -0.0370
      8 C         121.0882  154.0937  145.6585 C.3     1  UNL111     -0.0370
      9 C         123.1749  153.3651  146.8886 C.3     1  UNL111     -0.0358
     10 C         117.1845  151.9172  146.0162 C.2     1  UNL111      0.1512
     11 C         123.9816  152.7878  145.7219 C.3     1  UNL111     -0.0312
     12 C         116.4039  154.2354  146.5052 C.3     1  UNL111     -0.0053
     13 C         115.7436  151.4074  146.0061 C.3     1  UNL111      0.0371
     14 C         115.6444  149.8901  146.2481 C.3     1  UNL111     -0.0384
     15 C         125.4590  152.9341  145.9777 C.3     1  UNL111     -0.0753
     16 C         115.5074  154.4258  145.4466 C.3     1  UNL111     -0.0556
     17 C         116.3181  155.0763  147.6230 C.3     1  UNL111     -0.0556
     18 C         116.0269  149.5306  147.6861 C.3     1  UNL111     -0.0635
     19 C         114.2238  149.4045  145.9530 C.3     1  UNL111     -0.0635
     20 C         114.5311  155.4228  145.5137 C.3     1  UNL111     -0.0787
     21 C         115.3389  156.0706  147.6904 C.3     1  UNL111     -0.0787
     22 C         126.1368  154.0948  145.5785 C.3     1  UNL111     -0.0811
     23 C         126.1673  151.9278  146.6494 C.3     1  UNL111     -0.0811
     24 C         114.4455  156.2423  146.6362 C.3     1  UNL111     -0.0844
     25 C         127.4985  154.2433  145.8453 C.3     1  UNL111     -0.0857
     26 C         127.5288  152.0809  146.9146 C.3     1  UNL111     -0.0857
     27 C         128.1931  153.2379  146.5140 C.3     1  UNL111     -0.0868
     28 H         121.5497  152.1923  146.3481 H       1  UNL111      0.1323
     29 H         118.7896  154.7168  147.0428 H       1  UNL111      0.0863
     30 H         119.4576  151.7849  147.5813 H       1  UNL111      0.0550
     31 H         118.9347  152.9894  148.7371 H       1  UNL111      0.0550
     32 H         119.2007  154.4204  144.6885 H       1  UNL111      0.0550
     33 H         119.6387  152.7388  144.8847 H       1  UNL111      0.0550
     34 H         121.0306  154.2931  148.3589 H       1  UNL111      0.0741
     35 H         121.4182  152.5838  148.7117 H       1  UNL111      0.0741
     36 H         121.6724  154.0030  144.7393 H       1  UNL111      0.0741
     37 H         121.1769  155.1155  146.0441 H       1  UNL111      0.0741
     38 H         123.4459  152.8490  147.8171 H       1  UNL111      0.0751
     39 H         123.3439  154.4394  147.0263 H       1  UNL111      0.0751
     40 H         123.7333  153.2876  144.7792 H       1  UNL111      0.0589
     41 H         123.7369  151.7280  145.5771 H       1  UNL111      0.0589
     42 H         115.3301  151.6337  145.0172 H       1  UNL111      0.0757
     43 H         115.1463  151.9280  146.7620 H       1  UNL111      0.0757
     44 H         116.3268  149.3637  145.5692 H       1  UNL111      0.0418
     45 H         115.5738  153.8329  144.5384 H       1  UNL111      0.0993
     46 H         116.9777  154.9453  148.4759 H       1  UNL111      0.0993
     47 H         115.3704  150.0283  148.4080 H       1  UNL111      0.0273
     48 H         117.0576  149.8233  147.9096 H       1  UNL111      0.0273
     49 H         115.9484  148.4502  147.8484 H       1  UNL111      0.0273
     50 H         113.4921  149.8950  146.6042 H       1  UNL111      0.0273
     51 H         114.1426  148.3231  146.1058 H       1  UNL111      0.0273
     52 H         113.9485  149.6156  144.9142 H       1  UNL111      0.0273
     53 H         113.8395  155.5644  144.6858 H       1  UNL111      0.0890
     54 H         115.2643  156.7061  148.5700 H       1  UNL111      0.0890
     55 H         125.6213  154.8917  145.0470 H       1  UNL111      0.0893
     56 H         125.6756  151.0103  146.9658 H       1  UNL111      0.0893
     57 H         113.6812  157.0148  146.6890 H       1  UNL111      0.0876
     58 H         128.0236  155.1410  145.5261 H       1  UNL111      0.0876
     59 H         128.0774  151.2945  147.4287 H       1  UNL111      0.0876
     60 H         129.2559  153.3527  146.7160 H       1  UNL111      0.0874
@<TRIPOS>UNITY_ATOM_ATTR
2 1
charge 1
@<TRIPOS>BOND
     1     1    10    2
     2     2     7    1
     3     2     8    1
     4     2     9    1
     5     3     4    1
     6     3    10   am
     7     3    12    1
     8     4     5    1
     9     4     6    1
    10     5     7    1
    11     6     8    1
    12     9    11    1
    13    10    13    1
    14    11    15    1
    15    12    16   ar
    16    12    17   ar
    17    13    14    1
    18    14    18    1
    19    14    19    1
    20    15    22   ar
    21    15    23   ar
    22    16    20   ar
    23    17    21   ar
    24    20    24   ar
    25    21    24   ar
    26    22    25   ar
    27    23    26   ar
    28    25    27   ar
    29    26    27   ar
    30     2    28    1
    31     4    29    1
    32     5    30    1
    33     5    31    1
    34     6    32    1
    35     6    33    1
    36     7    34    1
    37     7    35    1
    38     8    36    1
    39     8    37    1
    40     9    38    1
    41     9    39    1
    42    11    40    1
    43    11    41    1
    44    13    42    1
    45    13    43    1
    46    14    44    1
    47    16    45    1
    48    17    46    1
    49    18    47    1
    50    18    48    1
    51    18    49    1
    52    19    50    1
    53    19    51    1
    54    19    52    1
    55    20    53    1
    56    21    54    1
    57    22    55    1
    58    23    56    1
    59    24    57    1
    60    25    58    1
    61    26    59    1
    62    27    60    1
@<TRIPOS>MOLECULE
165361475
 62 64 0 0 0
SMALL
GASTEIGER

@<TRIPOS>ATOM
      1 CL        128.2800  152.3689  146.5531 Cl      1  UNL111     -0.1054
      2 O         116.6316  155.4153  145.4186 O.2     1  UNL111     -0.3824
      3 O         123.4053  150.9644  145.7079 O.2     1  UNL111     -0.5804
      4 O         126.9652  155.1091  146.6086 O.2     1  UNL111     -0.5750
      5 N         120.0854  153.4165  146.7275 N.4     1  UNL111      0.4269
      6 N         115.8299  153.5110  146.4254 N.am    1  UNL111     -0.2907
      7 C         117.1976  153.0473  146.7620 C.3     1  UNL111      0.0176
      8 C         118.0353  152.7834  145.4992 C.3     1  UNL111     -0.0330
      9 C         117.9046  153.9921  147.7456 C.3     1  UNL111     -0.0330
     10 C         119.4541  152.3672  145.8400 C.3     1  UNL111     -0.0370
     11 C         119.3288  153.5503  148.0282 C.3     1  UNL111     -0.0370
     12 C         121.5659  153.1529  146.9743 C.3     1  UNL111     -0.0330
     13 C         122.4104  153.5551  145.7613 C.3     1  UNL111     -0.0145
     14 C         114.7625  152.5959  146.6675 C.3     1  UNL111     -0.0054
     15 C         115.6594  154.7583  145.8055 C.2     1  UNL111      0.1497
     16 C         123.8745  153.2526  145.9849 C.3     1  UNL111     -0.0020
     17 C         114.2459  155.3200  145.6894 C.3     1  UNL111      0.0336
     18 C         113.8591  152.2625  145.6514 C.3     1  UNL111     -0.0556
     19 C         114.6333  151.9757  147.9175 C.3     1  UNL111     -0.0556
     20 C         124.3552  151.9282  145.9379 C.3     1  UNL111      0.0523
     21 C         124.7716  154.3044  146.2275 C.3     1  UNL111     -0.0012
     22 C         114.2478  156.8360  145.5602 C.3     1  UNL111     -0.0446
     23 C         112.8325  151.3449  145.8877 C.3     1  UNL111     -0.0787
     24 C         113.6040  151.0612  148.1537 C.3     1  UNL111     -0.0787
     25 C         112.7034  150.7476  147.1390 C.3     1  UNL111     -0.0844
     26 C         126.1264  154.0408  146.4348 C.3     1  UNL111      0.0752
     27 C         125.7175  151.6759  146.1286 C.3     1  UNL111      0.0209
     28 C         126.6038  152.7313  146.3634 C.3     1  UNL111      0.0871
     29 C         123.8807  149.6495  145.4225 C.3     1  UNL111      0.0299
     30 C         127.1301  155.4020  147.9970 C.3     1  UNL111      0.0312
     31 H         120.0130  154.3249  146.2420 H       1  UNL111      0.1323
     32 H         117.1199  152.0757  147.2685 H       1  UNL111      0.0863
     33 H         118.0834  153.6650  144.8524 H       1  UNL111      0.0550
     34 H         117.5585  151.9971  144.9010 H       1  UNL111      0.0550
     35 H         117.3415  154.0329  148.6859 H       1  UNL111      0.0550
     36 H         117.9335  155.0192  147.3678 H       1  UNL111      0.0550
     37 H         119.4844  151.4124  146.3769 H       1  UNL111      0.0741
     38 H         120.0498  152.2864  144.9272 H       1  UNL111      0.0741
     39 H         119.8426  154.3028  148.6357 H       1  UNL111      0.0741
     40 H         119.3680  152.5818  148.5392 H       1  UNL111      0.0741
     41 H         121.6639  152.0976  147.2494 H       1  UNL111      0.0754
     42 H         121.8620  153.7602  147.8380 H       1  UNL111      0.0754
     43 H         122.2760  154.6259  145.5618 H       1  UNL111      0.0625
     44 H         122.0848  153.0432  144.8491 H       1  UNL111      0.0625
     45 H         113.6611  155.0486  146.5739 H       1  UNL111      0.0734
     46 H         113.7697  154.8992  144.7996 H       1  UNL111      0.0734
     47 H         113.9588  152.6754  144.6512 H       1  UNL111      0.0993
     48 H         115.2996  152.2241  148.7384 H       1  UNL111      0.0993
     49 H         124.4341  155.3387  146.2395 H       1  UNL111      0.1174
     50 H         114.7469  157.3016  146.4164 H       1  UNL111      0.0319
     51 H         113.2221  157.2148  145.5122 H       1  UNL111      0.0319
     52 H         114.7702  157.1549  144.6522 H       1  UNL111      0.0319
     53 H         112.1356  151.0906  145.0919 H       1  UNL111      0.0890
     54 H         113.4964  150.5994  149.1326 H       1  UNL111      0.0890
     55 H         111.9001  150.0372  147.3227 H       1  UNL111      0.0876
     56 H         126.1213  150.6688  146.0934 H       1  UNL111      0.1257
     57 H         123.0150  149.0342  145.1591 H       1  UNL111      0.1069
     58 H         124.3494  149.2043  146.3059 H       1  UNL111      0.1069
     59 H         124.5627  149.6503  144.5657 H       1  UNL111      0.1069
     60 H         127.8448  156.2257  148.0832 H       1  UNL111      0.1071
     61 H         127.5311  154.5450  148.5483 H       1  UNL111      0.1071
     62 H         126.1825  155.7263  148.4410 H       1  UNL111      0.1071
@<TRIPOS>UNITY_ATOM_ATTR
5 1
charge 1
@<TRIPOS>BOND
     1     1    28    1
     2     2    15    2
     3     3    20    1
     4     3    29    1
     5     4    26    1
     6     4    30    1
     7     5    10    1
     8     5    11    1
     9     5    12    1
    10     6     7    1
    11     6    14    1
    12     6    15   am
    13     7     8    1
    14     7     9    1
    15     8    10    1
    16     9    11    1
    17    12    13    1
    18    13    16    1
    19    14    18   ar
    20    14    19   ar
    21    15    17    1
    22    16    20   ar
    23    16    21   ar
    24    17    22    1
    25    18    23   ar
    26    19    24   ar
    27    20    27   ar
    28    21    26   ar
    29    23    25   ar
    30    24    25   ar
    31    26    28   ar
    32    27    28   ar
    33     5    31    1
    34     7    32    1
    35     8    33    1
    36     8    34    1
    37     9    35    1
    38     9    36    1
    39    10    37    1
    40    10    38    1
    41    11    39    1
    42    11    40    1
    43    12    41    1
    44    12    42    1
    45    13    43    1
    46    13    44    1
    47    17    45    1
    48    17    46    1
    49    18    47    1
    50    19    48    1
    51    21    49    1
    52    22    50    1
    53    22    51    1
    54    22    52    1
    55    23    53    1
    56    24    54    1
    57    25    55    1
    58    27    56    1
    59    29    57    1
    60    29    58    1
    61    29    59    1
    62    30    60    1
    63    30    61    1
    64    30    62    1
@<TRIPOS>MOLECULE
165361484
 65 67 0 0 0
SMALL
GASTEIGER

@<TRIPOS>ATOM
      1 O         116.6235  151.0845  144.9930 O.2     1  UNL111     -0.3824
      2 O         123.8075  150.9437  147.1846 O.2     1  UNL111     -0.5815
      3 O         126.7215  155.4197  145.6622 O.2     1  UNL111     -0.5820
      4 N         120.0848  152.8991  146.6069 N.4     1  UNL111      0.4269
      5 N         115.8331  152.8943  146.1693 N.am    1  UNL111     -0.2907
      6 C         117.1996  153.2928  146.5846 C.3     1  UNL111      0.0176
      7 C         117.8639  152.2213  147.4644 C.3     1  UNL111     -0.0330
      8 C         118.0793  153.6867  145.3889 C.3     1  UNL111     -0.0330
      9 C         119.2779  152.6115  147.8532 C.3     1  UNL111     -0.0370
     10 C         119.4900  154.0421  145.8221 C.3     1  UNL111     -0.0370
     11 C         121.5564  153.1130  146.9466 C.3     1  UNL111     -0.0331
     12 C         122.4492  152.8745  145.7242 C.3     1  UNL111     -0.0147
     13 C         114.7467  153.5936  146.7749 C.3     1  UNL111     -0.0054
     14 C         115.6676  151.8024  145.3038 C.2     1  UNL111      0.1497
     15 C         123.9113  153.0169  146.0810 C.3     1  UNL111     -0.0042
     16 C         114.2894  151.5689  144.6928 C.3     1  UNL111      0.0336
     17 C         113.7125  152.8979  147.4124 C.3     1  UNL111     -0.0556
     18 C         114.7254  154.9949  146.7853 C.3     1  UNL111     -0.0556
     19 C         124.5716  152.0252  146.8269 C.3     1  UNL111      0.0448
     20 C         124.6160  154.1647  145.6741 C.3     1  UNL111     -0.0089
     21 C         114.3745  150.8000  143.3827 C.3     1  UNL111     -0.0446
     22 C         112.6662  153.5891  148.0282 C.3     1  UNL111     -0.0787
     23 C         113.6768  155.6849  147.3982 C.3     1  UNL111     -0.0787
     24 C         125.9622  154.3344  146.0072 C.3     1  UNL111      0.0419
     25 C         125.9127  152.2032  147.1719 C.3     1  UNL111     -0.0117
     26 C         126.6134  153.3535  146.7714 C.3     1  UNL111     -0.0143
     27 C         112.6472  154.9815  148.0181 C.3     1  UNL111     -0.0844
     28 C         128.0602  153.5175  147.1557 C.3     1  UNL111     -0.0272
     29 C         124.5012  149.8185  147.7206 C.3     1  UNL111      0.0297
     30 C         126.1952  156.3127  144.6893 C.3     1  UNL111      0.0296
     31 H         120.0374  152.0476  146.0241 H       1  UNL111      0.1323
     32 H         117.1223  154.1859  147.2193 H       1  UNL111      0.0863
     33 H         117.9017  151.2504  146.9604 H       1  UNL111      0.0550
     34 H         117.2659  152.0675  148.3711 H       1  UNL111      0.0550
     35 H         117.6310  154.5415  144.8681 H       1  UNL111      0.0550
     36 H         118.1406  152.8813  144.6498 H       1  UNL111      0.0550
     37 H         119.3021  153.5094  148.4806 H       1  UNL111      0.0741
     38 H         119.7641  151.7845  148.3815 H       1  UNL111      0.0741
     39 H         120.1165  154.2161  144.9435 H       1  UNL111      0.0741
     40 H         119.5096  154.9319  146.4613 H       1  UNL111      0.0741
     41 H         121.7989  152.4082  147.7483 H       1  UNL111      0.0754
     42 H         121.6581  154.1302  147.3427 H       1  UNL111      0.0754
     43 H         122.2022  153.5789  144.9223 H       1  UNL111      0.0625
     44 H         122.2731  151.8757  145.3052 H       1  UNL111      0.0625
     45 H         113.7972  152.5273  144.4997 H       1  UNL111      0.0734
     46 H         113.6846  150.9886  145.3951 H       1  UNL111      0.0734
     47 H         113.7204  151.8133  147.4783 H       1  UNL111      0.0993
     48 H         115.4961  155.5712  146.2819 H       1  UNL111      0.0993
     49 H         124.0966  154.9227  145.0964 H       1  UNL111      0.1161
     50 H         115.0020  151.3294  142.6580 H       1  UNL111      0.0319
     51 H         113.3775  150.6764  142.9488 H       1  UNL111      0.0319
     52 H         114.8041  149.8044  143.5354 H       1  UNL111      0.0319
     53 H         111.8675  153.0403  148.5227 H       1  UNL111      0.0890
     54 H         113.6556  156.7723  147.3847 H       1  UNL111      0.0890
     55 H         126.4447  151.4620  147.7614 H       1  UNL111      0.1155
     56 H         111.8290  155.5180  148.4939 H       1  UNL111      0.0876
     57 H         128.1950  154.4312  147.7437 H       1  UNL111      0.0430
     58 H         128.6866  153.5647  146.2590 H       1  UNL111      0.0430
     59 H         128.4133  152.6783  147.7642 H       1  UNL111      0.0430
     60 H         123.7767  149.0065  147.8359 H       1  UNL111      0.1069
     61 H         124.9055  150.0464  148.7120 H       1  UNL111      0.1069
     62 H         125.2854  149.4716  147.0394 H       1  UNL111      0.1069
     63 H         126.9755  157.0400  144.4454 H       1  UNL111      0.1069
     64 H         125.3388  156.8646  145.0897 H       1  UNL111      0.1069
     65 H         125.9296  155.7857  143.7668 H       1  UNL111      0.1069
@<TRIPOS>UNITY_ATOM_ATTR
4 1
charge 1
@<TRIPOS>BOND
     1     1    14    2
     2     2    19    1
     3     2    29    1
     4     3    24    1
     5     3    30    1
     6     4     9    1
     7     4    10    1
     8     4    11    1
     9     5     6    1
    10     5    13    1
    11     5    14   am
    12     6     7    1
    13     6     8    1
    14     7     9    1
    15     8    10    1
    16    11    12    1
    17    12    15    1
    18    13    17   ar
    19    13    18   ar
    20    14    16    1
    21    15    19   ar
    22    15    20   ar
    23    16    21    1
    24    17    22   ar
    25    18    23   ar
    26    19    25   ar
    27    20    24   ar
    28    22    27   ar
    29    23    27   ar
    30    24    26   ar
    31    25    26   ar
    32    26    28    1
    33     4    31    1
    34     6    32    1
    35     7    33    1
    36     7    34    1
    37     8    35    1
    38     8    36    1
    39     9    37    1
    40     9    38    1
    41    10    39    1
    42    10    40    1
    43    11    41    1
    44    11    42    1
    45    12    43    1
    46    12    44    1
    47    16    45    1
    48    16    46    1
    49    17    47    1
    50    18    48    1
    51    20    49    1
    52    21    50    1
    53    21    51    1
    54    21    52    1
    55    22    53    1
    56    23    54    1
    57    25    55    1
    58    27    56    1
    59    28    57    1
    60    28    58    1
    61    28    59    1
    62    29    60    1
    63    29    61    1
    64    29    62    1
    65    30    63    1
    66    30    64    1
    67    30    65    1
@<TRIPOS>MOLECULE
165361499
 68 70 0 0 0
SMALL
GASTEIGER

@<TRIPOS>ATOM
      1 O         116.1392  155.3667  147.5971 O.2     1  UNL111     -0.3824
      2 O         122.8192  151.7373  147.9388 O.2     1  UNL111     -0.5814
      3 O         127.1679  153.7404  145.1187 O.2     1  UNL111     -0.5820
      4 N         120.0333  154.1588  146.6329 N.4     1  UNL111      0.4273
      5 N         115.8525  153.3432  146.5452 N.am    1  UNL111     -0.2907
      6 C         117.3124  153.1826  146.3391 C.3     1  UNL111      0.0176
      7 C         118.0740  153.0607  147.6685 C.3     1  UNL111     -0.0328
      8 C         117.8823  154.2876  145.4313 C.3     1  UNL111     -0.0328
      9 C         119.5745  152.9712  147.4542 C.3     1  UNL111     -0.0364
     10 C         119.3868  154.1663  145.2694 C.3     1  UNL111     -0.0364
     11 C         121.5649  154.3044  146.6448 C.3     1  UNL111     -0.0339
     12 C         122.2464  153.2825  145.7117 C.3     1  UNL111     -0.0132
     13 C         121.9305  155.7490  146.2927 C.3     1  UNL111     -0.0586
     14 C         115.0029  152.3907  145.9077 C.3     1  UNL111     -0.0054
     15 C         115.3778  154.4547  147.2583 C.2     1  UNL111      0.1497
     16 C         123.6685  152.9895  146.1361 C.3     1  UNL111     -0.0035
     17 C         113.9100  154.4737  147.6733 C.3     1  UNL111      0.0336
     18 C         123.9268  152.2024  147.2730 C.3     1  UNL111      0.0449
     19 C         124.7409  153.5135  145.3921 C.3     1  UNL111     -0.0087
     20 C         115.2417  151.0179  146.0581 C.3     1  UNL111     -0.0556
     21 C         113.9510  152.8065  145.0829 C.3     1  UNL111     -0.0556
     22 C         126.0624  153.2687  145.7732 C.3     1  UNL111      0.0419
     23 C         125.2478  151.9650  147.6564 C.3     1  UNL111     -0.0117
     24 C         113.6754  155.3680  148.8817 C.3     1  UNL111     -0.0446
     25 C         126.3188  152.4935  146.9157 C.3     1  UNL111     -0.0143
     26 C         114.4270  150.0807  145.4181 C.3     1  UNL111     -0.0787
     27 C         113.1392  151.8684  144.4404 C.3     1  UNL111     -0.0787
     28 C         113.3753  150.5067  144.6109 C.3     1  UNL111     -0.0844
     29 C         127.7340  152.2190  147.3525 C.3     1  UNL111     -0.0272
     30 C         123.0514  150.7825  148.9732 C.3     1  UNL111      0.0297
     31 C         126.9712  154.4466  143.9010 C.3     1  UNL111      0.0296
     32 H         119.6822  154.9916  147.1324 H       1  UNL111      0.1335
     33 H         117.4856  152.2432  145.7969 H       1  UNL111      0.0863
     34 H         117.7289  152.1714  148.2100 H       1  UNL111      0.0551
     35 H         117.8723  153.9108  148.3282 H       1  UNL111      0.0551
     36 H         117.6593  155.2865  145.8186 H       1  UNL111      0.0551
     37 H         117.4042  154.2341  144.4454 H       1  UNL111      0.0551
     38 H         120.0955  153.0061  148.4164 H       1  UNL111      0.0743
     39 H         119.8525  152.0572  146.9202 H       1  UNL111      0.0743
     40 H         119.6618  153.2396  144.7554 H       1  UNL111      0.0743
     41 H         119.7754  155.0215  144.7106 H       1  UNL111      0.0743
     42 H         121.8537  154.1499  147.6908 H       1  UNL111      0.0801
     43 H         122.2293  153.6430  144.6751 H       1  UNL111      0.0636
     44 H         121.7074  152.3282  145.6920 H       1  UNL111      0.0636
     45 H         121.7154  155.9864  145.2464 H       1  UNL111      0.0404
     46 H         122.9993  155.9242  146.4553 H       1  UNL111      0.0404
     47 H         121.3840  156.4592  146.9224 H       1  UNL111      0.0404
     48 H         113.5776  153.4611  147.9223 H       1  UNL111      0.0734
     49 H         113.3118  154.8550  146.8413 H       1  UNL111      0.0734
     50 H         124.5253  154.1146  144.5142 H       1  UNL111      0.1161
     51 H         116.0331  150.6539  146.7068 H       1  UNL111      0.0993
     52 H         113.7680  153.8604  144.8918 H       1  UNL111      0.0993
     53 H         125.4821  151.3720  148.5357 H       1  UNL111      0.1155
     54 H         114.2829  155.0435  149.7331 H       1  UNL111      0.0319
     55 H         112.6226  155.3373  149.1789 H       1  UNL111      0.0319
     56 H         113.9354  156.4084  148.6603 H       1  UNL111      0.0319
     57 H         114.6049  149.0166  145.5560 H       1  UNL111      0.0890
     58 H         112.3248  152.2007  143.8001 H       1  UNL111      0.0890
     59 H         112.7390  149.7776  144.1139 H       1  UNL111      0.0876
     60 H         128.2513  153.1585  147.5727 H       1  UNL111      0.0430
     61 H         128.2745  151.6796  146.5679 H       1  UNL111      0.0430
     62 H         127.7642  151.6044  148.2583 H       1  UNL111      0.0430
     63 H         122.0758  150.4417  149.3332 H       1  UNL111      0.1069
     64 H         123.5754  151.2411  149.8178 H       1  UNL111      0.1069
     65 H         123.5905  149.9079  148.5941 H       1  UNL111      0.1069
     66 H         127.9565  154.7002  143.4982 H       1  UNL111      0.1069
     67 H         126.4307  155.3829  144.0737 H       1  UNL111      0.1069
     68 H         126.4581  153.8240  143.1607 H       1  UNL111      0.1069
@<TRIPOS>UNITY_ATOM_ATTR
4 1
charge 1
@<TRIPOS>BOND
     1     1    15    2
     2     2    18    1
     3     2    30    1
     4     3    22    1
     5     3    31    1
     6     4     9    1
     7     4    10    1
     8     4    11    1
     9     5     6    1
    10     5    14    1
    11     5    15   am
    12     6     7    1
    13     6     8    1
    14     7     9    1
    15     8    10    1
    16    11    12    1
    17    11    13    1
    18    12    16    1
    19    14    20   ar
    20    14    21   ar
    21    15    17    1
    22    16    18   ar
    23    16    19   ar
    24    17    24    1
    25    18    23   ar
    26    19    22   ar
    27    20    26   ar
    28    21    27   ar
    29    22    25   ar
    30    23    25   ar
    31    25    29    1
    32    26    28   ar
    33    27    28   ar
    34     4    32    1
    35     6    33    1
    36     7    34    1
    37     7    35    1
    38     8    36    1
    39     8    37    1
    40     9    38    1
    41     9    39    1
    42    10    40    1
    43    10    41    1
    44    11    42    1
    45    12    43    1
    46    12    44    1
    47    13    45    1
    48    13    46    1
    49    13    47    1
    50    17    48    1
    51    17    49    1
    52    19    50    1
    53    20    51    1
    54    21    52    1
    55    23    53    1
    56    24    54    1
    57    24    55    1
    58    24    56    1
    59    26    57    1
    60    27    58    1
    61    28    59    1
    62    29    60    1
    63    29    61    1
    64    29    62    1
    65    30    63    1
    66    30    64    1
    67    30    65    1
    68    31    66    1
    69    31    67    1
    70    31    68    1
@<TRIPOS>MOLECULE
21812144
 46 48 0 0 0
SMALL
GASTEIGER

@<TRIPOS>ATOM
      1 F         126.6701  155.3912  146.8605 F       1  UNL111     -0.2904
      2 N         118.7976  151.8174  146.5243 N.4     1  UNL111      0.4267
      3 N         122.3065  152.1920  145.6785 N.pl3   1  UNL111     -0.4098
      4 C         121.6833  151.2026  146.5522 C.3     1  UNL111     -0.0001
      5 C         120.9649  151.8716  147.7281 C.3     1  UNL111     -0.0361
      6 C         120.6759  150.3709  145.7511 C.3     1  UNL111     -0.0361
      7 C         119.7744  152.6992  147.2747 C.3     1  UNL111     -0.0375
      8 C         119.4598  151.1794  145.3226 C.3     1  UNL111     -0.0375
      9 C         117.5365  152.5655  146.1027 C.3     1  UNL111     -0.0358
     10 C         116.6302  152.8622  147.3006 C.3     1  UNL111     -0.0312
     11 C         123.4347  152.9376  146.0047 C.ar    1  UNL111     -0.0197
     12 C         115.3257  153.4600  146.8420 C.ar    1  UNL111     -0.0753
     13 C         124.1589  152.7907  147.1947 C.ar    1  UNL111     -0.0437
     14 C         123.8299  153.9574  145.1214 C.ar    1  UNL111     -0.0437
     15 C         115.2086  154.8436  146.6477 C.ar    1  UNL111     -0.0811
     16 C         114.2236  152.6374  146.5692 C.ar    1  UNL111     -0.0811
     17 C         125.2538  153.6137  147.4820 C.ar    1  UNL111     -0.0172
     18 C         124.9218  154.7833  145.4032 C.ar    1  UNL111     -0.0172
     19 C         114.0096  155.3925  146.1911 C.ar    1  UNL111     -0.0857
     20 C         113.0267  153.1907  146.1123 C.ar    1  UNL111     -0.0857
     21 C         125.6252  154.6022  146.5832 C.ar    1  UNL111      0.0843
     22 C         112.9205  154.5666  145.9225 C.ar    1  UNL111     -0.0868
     23 H         118.4994  151.0586  147.1523 H       1  UNL111      0.1323
     24 H         122.2077  152.0711  144.6714 H       1  UNL111      0.1809
     25 H         122.4515  150.5167  146.9295 H       1  UNL111      0.0813
     26 H         121.6400  152.5158  148.2998 H       1  UNL111      0.0544
     27 H         120.6205  151.0954  148.4241 H       1  UNL111      0.0544
     28 H         120.3434  149.5236  146.3649 H       1  UNL111      0.0544
     29 H         121.1568  149.9445  144.8623 H       1  UNL111      0.0544
     30 H         119.2543  153.1014  148.1482 H       1  UNL111      0.0740
     31 H         120.0606  153.5241  146.6132 H       1  UNL111      0.0740
     32 H         119.7205  151.9810  144.6226 H       1  UNL111      0.0740
     33 H         118.7195  150.5216  144.8547 H       1  UNL111      0.0740
     34 H         117.0123  151.9180  145.3898 H       1  UNL111      0.0751
     35 H         117.8508  153.4766  145.5803 H       1  UNL111      0.0751
     36 H         117.1114  153.5553  147.9997 H       1  UNL111      0.0589
     37 H         116.4340  151.9438  147.8682 H       1  UNL111      0.0589
     38 H         123.9129  152.0189  147.9169 H       1  UNL111      0.1017
     39 H         123.2857  154.1244  144.1947 H       1  UNL111      0.1017
     40 H         116.0402  155.5130  146.8573 H       1  UNL111      0.0893
     41 H         114.2757  151.5608  146.7159 H       1  UNL111      0.0893
     42 H         125.8204  153.4854  148.3993 H       1  UNL111      0.1104
     43 H         125.2238  155.5639  144.7119 H       1  UNL111      0.1104
     44 H         113.9191  156.4675  146.0495 H       1  UNL111      0.0876
     45 H         112.1707  152.5507  145.9091 H       1  UNL111      0.0876
     46 H         111.9849  154.9969  145.5719 H       1  UNL111      0.0874
@<TRIPOS>UNITY_ATOM_ATTR
2 1
charge 1
@<TRIPOS>BOND
     1     1    21    1
     2     2     7    1
     3     2     8    1
     4     2     9    1
     5     3     4    1
     6     3    11    1
     7     4     5    1
     8     4     6    1
     9     5     7    1
    10     6     8    1
    11     9    10    1
    12    10    12    1
    13    11    13   ar
    14    11    14   ar
    15    12    15   ar
    16    12    16   ar
    17    13    17   ar
    18    14    18   ar
    19    15    19   ar
    20    16    20   ar
    21    17    21   ar
    22    18    21   ar
    23    19    22   ar
    24    20    22   ar
    25     2    23    1
    26     3    24    1
    27     4    25    1
    28     5    26    1
    29     5    27    1
    30     6    28    1
    31     6    29    1
    32     7    30    1
    33     7    31    1
    34     8    32    1
    35     8    33    1
    36     9    34    1
    37     9    35    1
    38    10    36    1
    39    10    37    1
    40    13    38    1
    41    14    39    1
    42    15    40    1
    43    16    41    1
    44    17    42    1
    45    18    43    1
    46    19    44    1
    47    20    45    1
    48    22    46    1
@<TRIPOS>MOLECULE
40537360
 57 59 0 0 0
SMALL
GASTEIGER

@<TRIPOS>ATOM
      1 O         122.1303  150.5265  145.8989 O.2     1  UNL111     -0.3824
      2 N         118.3790  153.1012  146.2617 N.4     1  UNL111      0.4270
      3 N         122.6736  152.6480  146.6154 N.am    1  UNL111     -0.2900
      4 C         121.2597  153.0996  146.7050 C.3     1  UNL111      0.0193
      5 C         120.6720  153.5680  145.3492 C.3     1  UNL111     -0.0305
      6 C         120.3255  152.1278  147.4453 C.3     1  UNL111     -0.0323
      7 C         119.2602  154.1219  145.5694 C.3     1  UNL111     -0.0352
      8 C         118.9372  152.7206  147.6145 C.3     1  UNL111     -0.0367
      9 C         120.6692  152.5148  144.2373 C.3     1  UNL111     -0.0559
     10 C         116.9365  153.5920  146.3337 C.3     1  UNL111     -0.0356
     11 C         115.9618  152.4385  146.5887 C.3     1  UNL111     -0.0312
     12 C         123.6646  153.6748  146.6948 C.3     1  UNL111     -0.0052
     13 C         122.9921  151.3260  146.2711 C.2     1  UNL111      0.1498
     14 C         124.4435  150.8800  146.4342 C.3     1  UNL111      0.0336
     15 C         114.5384  152.9293  146.5407 C.3     1  UNL111     -0.0753
     16 C         124.5668  153.8750  145.6426 C.3     1  UNL111     -0.0555
     17 C         123.7133  154.5289  147.8036 C.3     1  UNL111     -0.0555
     18 C         124.5555  149.3737  146.6157 C.3     1  UNL111     -0.0446
     19 C         125.5123  154.9007  145.7066 C.3     1  UNL111     -0.0787
     20 C         124.6622  155.5519  147.8675 C.3     1  UNL111     -0.0787
     21 C         113.9216  153.4324  147.6949 C.3     1  UNL111     -0.0811
     22 C         113.8244  152.9221  145.3341 C.3     1  UNL111     -0.0811
     23 C         125.5608  155.7369  146.8194 C.3     1  UNL111     -0.0844
     24 C         112.6140  153.9169  147.6417 C.3     1  UNL111     -0.0857
     25 C         112.5172  153.4080  145.2855 C.3     1  UNL111     -0.0857
     26 C         111.9134  153.9059  146.4378 C.3     1  UNL111     -0.0868
     27 H         118.3716  152.2539  145.6742 H       1  UNL111      0.1325
     28 H         121.2638  153.9973  147.3383 H       1  UNL111      0.0875
     29 H         121.2889  154.3992  144.9812 H       1  UNL111      0.0599
     30 H         120.7435  151.8914  148.4313 H       1  UNL111      0.0552
     31 H         120.2147  151.1771  146.9174 H       1  UNL111      0.0552
     32 H         119.2750  155.0175  146.2019 H       1  UNL111      0.0753
     33 H         118.7866  154.3740  144.6140 H       1  UNL111      0.0753
     34 H         118.2693  151.9798  148.0615 H       1  UNL111      0.0741
     35 H         118.9477  153.6222  148.2370 H       1  UNL111      0.0741
     36 H         120.1434  151.6010  144.5272 H       1  UNL111      0.0311
     37 H         121.6902  152.2503  143.9458 H       1  UNL111      0.0311
     38 H         120.1790  152.9063  143.3389 H       1  UNL111      0.0311
     39 H         116.7130  154.0594  145.3675 H       1  UNL111      0.0751
     40 H         116.8888  154.3619  147.1124 H       1  UNL111      0.0751
     41 H         116.1432  151.9723  147.5633 H       1  UNL111      0.0589
     42 H         116.1032  151.6473  145.8417 H       1  UNL111      0.0589
     43 H         124.8893  151.3687  147.3064 H       1  UNL111      0.0734
     44 H         125.0046  151.1631  145.5393 H       1  UNL111      0.0734
     45 H         124.5289  153.2618  144.7457 H       1  UNL111      0.0993
     46 H         123.0505  154.3848  148.6522 H       1  UNL111      0.0993
     47 H         123.9786  149.0398  147.4845 H       1  UNL111      0.0319
     48 H         125.6006  149.0853  146.7654 H       1  UNL111      0.0319
     49 H         124.1788  148.8402  145.7367 H       1  UNL111      0.0319
     50 H         126.2107  155.0501  144.8859 H       1  UNL111      0.0890
     51 H         124.7110  156.1986  148.7408 H       1  UNL111      0.0890
     52 H         114.4419  153.4446  148.6502 H       1  UNL111      0.0893
     53 H         114.2682  152.5311  144.4209 H       1  UNL111      0.0893
     54 H         126.3029  156.5310  146.8711 H       1  UNL111      0.0876
     55 H         112.1349  154.2981  148.5409 H       1  UNL111      0.0876
     56 H         111.9629  153.3932  144.3494 H       1  UNL111      0.0876
     57 H         110.8920  154.2784  146.3992 H       1  UNL111      0.0874
@<TRIPOS>UNITY_ATOM_ATTR
2 1
charge 1
@<TRIPOS>BOND
     1     1    13    2
     2     2     7    1
     3     2     8    1
     4     2    10    1
     5     3     4    1
     6     3    12    1
     7     3    13   am
     8     4     5    1
     9     4     6    1
    10     5     7    1
    11     5     9    1
    12     6     8    1
    13    10    11    1
    14    11    15    1
    15    12    16   ar
    16    12    17   ar
    17    13    14    1
    18    14    18    1
    19    15    21   ar
    20    15    22   ar
    21    16    19   ar
    22    17    20   ar
    23    19    23   ar
    24    20    23   ar
    25    21    24   ar
    26    22    25   ar
    27    24    26   ar
    28    25    26   ar
    29     2    27    1
    30     4    28    1
    31     5    29    1
    32     6    30    1
    33     6    31    1
    34     7    32    1
    35     7    33    1
    36     8    34    1
    37     8    35    1
    38     9    36    1
    39     9    37    1
    40     9    38    1
    41    10    39    1
    42    10    40    1
    43    11    41    1
    44    11    42    1
    45    14    43    1
    46    14    44    1
    47    16    45    1
    48    17    46    1
    49    18    47    1
    50    18    48    1
    51    18    49    1
    52    19    50    1
    53    20    51    1
    54    21    52    1
    55    22    53    1
    56    23    54    1
    57    24    55    1
    58    25    56    1
    59    26    57    1
@<TRIPOS>MOLECULE
137699952
 52 54 0 0 0
SMALL
GASTEIGER

@<TRIPOS>ATOM
      1 F         115.2020  153.9332  144.8850 F       1  UNL111     -0.2794
      2 O         118.0697  155.4947  146.7587 O.2     1  UNL111     -0.3699
      3 N         121.4753  153.1170  146.2410 N.4     1  UNL111      0.4267
      4 N         117.2475  153.3377  146.7488 N.am    1  UNL111     -0.2689
      5 C         118.6012  152.7622  146.5689 C.3     1  UNL111      0.0217
      6 C         119.2199  153.1870  145.2260 C.3     1  UNL111     -0.0325
      7 C         119.5231  153.0651  147.7606 C.3     1  UNL111     -0.0325
      8 C         120.6369  152.6720  145.0634 C.3     1  UNL111     -0.0370
      9 C         120.9336  152.5527  147.5326 C.3     1  UNL111     -0.0370
     10 C         122.9461  152.7890  146.0179 C.3     1  UNL111     -0.0358
     11 C         123.8535  153.6325  146.9180 C.3     1  UNL111     -0.0312
     12 C         116.1380  152.4638  146.5085 C.3     1  UNL111      0.0582
     13 C         117.1161  154.7260  146.8977 C.2     1  UNL111      0.1791
     14 C         125.3025  153.3322  146.6348 C.3     1  UNL111     -0.0753
     15 C         115.1261  152.7972  145.5939 C.3     1  UNL111      0.1137
     16 C         116.0616  151.2267  147.1625 C.3     1  UNL111     -0.0395
     17 C         115.8051  155.2444  147.3871 C.2     1  UNL111      0.0042
     18 C         125.9554  152.2891  147.3070 C.3     1  UNL111     -0.0811
     19 C         126.0057  154.0671  145.6701 C.3     1  UNL111     -0.0811
     20 C         114.0577  151.9386  145.3498 C.3     1  UNL111     -0.0162
     21 C         114.9874  150.3633  146.9226 C.3     1  UNL111     -0.0738
     22 C         113.9863  150.7193  146.0190 C.3     1  UNL111     -0.0688
     23 C         127.2874  151.9892  147.0194 C.3     1  UNL111     -0.0857
     24 C         127.3377  153.7635  145.3855 C.3     1  UNL111     -0.0857
     25 C         115.5366  156.5563  147.3571 C.2     1  UNL111     -0.0894
     26 C         127.9772  152.7248  146.0585 C.3     1  UNL111     -0.0868
     27 H         121.3981  154.1464  146.2865 H       1  UNL111      0.1323
     28 H         118.5129  151.6686  146.5239 H       1  UNL111      0.0869
     29 H         119.2374  154.2759  145.1162 H       1  UNL111      0.0551
     30 H         118.6000  152.8131  144.4018 H       1  UNL111      0.0551
     31 H         119.1098  152.6072  148.6677 H       1  UNL111      0.0551
     32 H         119.5809  154.1386  147.9662 H       1  UNL111      0.0551
     33 H         120.6776  151.5780  145.0191 H       1  UNL111      0.0741
     34 H         121.0874  153.0897  144.1568 H       1  UNL111      0.0741
     35 H         121.5837  152.8793  148.3482 H       1  UNL111      0.0741
     36 H         120.9666  151.4599  147.4599 H       1  UNL111      0.0741
     37 H         123.1650  153.0055  144.9657 H       1  UNL111      0.0751
     38 H         123.0714  151.7128  146.1845 H       1  UNL111      0.0751
     39 H         123.6535  153.4425  147.9782 H       1  UNL111      0.0589
     40 H         123.6603  154.7009  146.7593 H       1  UNL111      0.0589
     41 H         116.8058  150.9339  147.8980 H       1  UNL111      0.1024
     42 H         115.0825  154.5515  147.7982 H       1  UNL111      0.1201
     43 H         125.4436  151.7042  148.0681 H       1  UNL111      0.0893
     44 H         125.5336  154.8886  145.1353 H       1  UNL111      0.0893
     45 H         113.2928  152.2223  144.6325 H       1  UNL111      0.1105
     46 H         114.9238  149.4127  147.4492 H       1  UNL111      0.0896
     47 H         113.1515  150.0457  145.8354 H       1  UNL111      0.0906
     48 H         127.7938  151.1849  147.5488 H       1  UNL111      0.0876
     49 H         127.8831  154.3410  144.6421 H       1  UNL111      0.0876
     50 H         116.2464  157.2787  146.9636 H       1  UNL111      0.0728
     51 H         114.5895  156.9377  147.7251 H       1  UNL111      0.0728
     52 H         129.0174  152.4937  145.8393 H       1  UNL111      0.0874
@<TRIPOS>UNITY_ATOM_ATTR
3 1
charge 1
@<TRIPOS>BOND
     1     1    15    1
     2     2    13    2
     3     3     8    1
     4     3     9    1
     5     3    10    1
     6     4     5    1
     7     4    12    1
     8     4    13   am
     9     5     6    1
    10     5     7    1
    11     6     8    1
    12     7     9    1
    13    10    11    1
    14    11    14    1
    15    12    15   ar
    16    12    16   ar
    17    13    17    1
    18    14    18   ar
    19    14    19   ar
    20    15    20   ar
    21    16    21   ar
    22    17    25    2
    23    18    23   ar
    24    19    24   ar
    25    20    22   ar
    26    21    22   ar
    27    23    26   ar
    28    24    26   ar
    29     3    27    1
    30     5    28    1
    31     6    29    1
    32     6    30    1
    33     7    31    1
    34     7    32    1
    35     8    33    1
    36     8    34    1
    37     9    35    1
    38     9    36    1
    39    10    37    1
    40    10    38    1
    41    11    39    1
    42    11    40    1
    43    16    41    1
    44    17    42    1
    45    18    43    1
    46    19    44    1
    47    20    45    1
    48    21    46    1
    49    22    47    1
    50    23    48    1
    51    24    49    1
    52    25    50    1
    53    25    51    1
    54    26    52    1
