@<TRIPOS>MOLECULE
10479418
 60 65 0 0 0
SMALL
GASTEIGER

@<TRIPOS>ATOM
      1 O         120.4284  150.9939  147.0426 O.2     1  UNL111     -0.5303
      2 O         122.5027  149.0443  147.2610 O.2     1  UNL111     -0.4040
      3 O         118.3447  151.1141  144.9820 O.2     1  UNL111     -0.5162
      4 O         118.1771  153.3620  145.8786 O.3     1  UNL111     -0.3726
      5 O         115.6504  150.6765  145.7314 O.3     1  UNL111     -0.4215
      6 O         114.4951  152.5132  147.5631 O.3     1  UNL111     -0.4308
      7 O         115.2400  155.2370  147.1328 O.3     1  UNL111     -0.4313
      8 O         118.8651  156.3750  145.9239 O.co2   1  UNL111     -0.5544
      9 O         118.6015  155.4660  147.9810 O.co2   1  UNL111     -0.5544
     10 N         122.9151  155.4414  146.7183 N.4     1  UNL111      0.4270
     11 C         122.1276  152.6776  147.0982 C.3     1  UNL111      0.0597
     12 C         123.6023  153.0648  147.0077 C.3     1  UNL111     -0.0136
     13 C         123.6891  154.2924  146.0484 C.3     1  UNL111     -0.0250
     14 C         121.7064  151.3151  147.6663 C.3     1  UNL111      0.1355
     15 C         121.3607  153.8190  147.8008 C.3     1  UNL111     -0.0250
     16 C         121.5806  152.4600  145.7291 C.3     1  UNL111      0.0252
     17 C         124.4801  151.8749  146.5984 C.3     1  UNL111     -0.0274
     18 C         123.1797  153.9885  144.6030 C.3     1  UNL111     -0.0224
     19 C         121.4551  155.1354  147.0424 C.3     1  UNL111     -0.0366
     20 C         121.9538  153.1209  144.5706 C.3     1  UNL111     -0.0425
     21 C         124.2208  150.6812  147.5128 C.3     1  UNL111      0.0289
     22 C         120.5143  151.5930  145.8085 C.3     1  UNL111      0.1127
     23 C         122.7745  150.2334  147.4235 C.2     1  UNL111      0.1275
     24 C         122.9773  156.7605  145.9912 C.3     1  UNL111     -0.0445
     25 C         121.1534  152.9245  143.4455 C.3     1  UNL111     -0.0567
     26 C         119.6221  151.5512  144.7631 C.3     1  UNL111      0.1111
     27 C         119.9667  152.1712  143.5523 C.3     1  UNL111     -0.0096
     28 C         117.4878  152.2603  145.2902 C.3     1  UNL111      0.1502
     29 C         116.4152  151.7707  146.2712 C.3     1  UNL111      0.0995
     30 C         115.4659  152.9256  146.5820 C.3     1  UNL111      0.0797
     31 C         116.2062  154.1755  147.0830 C.3     1  UNL111      0.0796
     32 C         117.3573  154.5248  146.1403 C.3     1  UNL111      0.1102
     33 C         118.3052  155.5909  146.7544 C.2     1  UNL111      0.0700
     34 H         116.3130  150.0094  145.4629 H       1  UNL111      0.2455
     35 H         114.1893  151.6364  147.2556 H       1  UNL111      0.2420
     36 H         114.5373  154.9052  147.7246 H       1  UNL111      0.2419
     37 H         123.3479  155.6189  147.6312 H       1  UNL111      0.1324
     38 H         123.9508  153.3766  148.0034 H       1  UNL111      0.0627
     39 H         124.7259  154.6458  145.9961 H       1  UNL111      0.0835
     40 H         121.5545  151.3645  148.7515 H       1  UNL111      0.1606
     41 H         121.7629  153.9539  148.8137 H       1  UNL111      0.0545
     42 H         120.3044  153.5591  147.9323 H       1  UNL111      0.0545
     43 H         125.5360  152.1620  146.6613 H       1  UNL111      0.0427
     44 H         124.2954  151.5788  145.5597 H       1  UNL111      0.0427
     45 H         123.9731  153.4483  144.0706 H       1  UNL111      0.0613
     46 H         123.0020  154.9104  144.0419 H       1  UNL111      0.0613
     47 H         120.9240  155.1059  146.0912 H       1  UNL111      0.0738
     48 H         121.0969  155.9671  147.6558 H       1  UNL111      0.0738
     49 H         124.4436  150.9234  148.5576 H       1  UNL111      0.0688
     50 H         124.8653  149.8469  147.2152 H       1  UNL111      0.0688
     51 H         122.3553  156.7136  145.0945 H       1  UNL111      0.0667
     52 H         124.0222  156.9560  145.7376 H       1  UNL111      0.0667
     53 H         122.6108  157.5355  146.6702 H       1  UNL111      0.0667
     54 H         121.3828  153.4174  142.5036 H       1  UNL111      0.0940
     55 H         119.2789  152.1313  142.7117 H       1  UNL111      0.1146
     56 H         117.0328  152.5680  144.3393 H       1  UNL111      0.1975
     57 H         116.8741  151.4024  147.1969 H       1  UNL111      0.1391
     58 H         114.8786  153.1758  145.6886 H       1  UNL111      0.1254
     59 H         116.5555  154.0011  148.1075 H       1  UNL111      0.1249
     60 H         116.9766  154.9122  145.1866 H       1  UNL111      0.1368
@<TRIPOS>UNITY_ATOM_ATTR
8 1
charge -1
10 1
charge 1
@<TRIPOS>BOND
     1     1    14    1
     2     1    22    1
     3     2    23    2
     4     3    26    1
     5     3    28    1
     6     4    28    1
     7     4    32    1
     8     5    29    1
     9     6    30    1
    10     7    31    1
    11     8    33   ar
    12     9    33   ar
    13    10    13    1
    14    10    19    1
    15    10    24    1
    16    11    12    1
    17    11    14    1
    18    11    15    1
    19    11    16    1
    20    12    13    1
    21    12    17    1
    22    13    18    1
    23    14    23    1
    24    15    19    1
    25    16    20   ar
    26    16    22   ar
    27    17    21    1
    28    18    20    1
    29    20    25   ar
    30    21    23    1
    31    22    26   ar
    32    25    27   ar
    33    26    27   ar
    34    28    29    1
    35    29    30    1
    36    30    31    1
    37    31    32    1
    38    32    33    1
    39     5    34    1
    40     6    35    1
    41     7    36    1
    42    10    37    1
    43    12    38    1
    44    13    39    1
    45    14    40    1
    46    15    41    1
    47    15    42    1
    48    17    43    1
    49    17    44    1
    50    18    45    1
    51    18    46    1
    52    19    47    1
    53    19    48    1
    54    21    49    1
    55    21    50    1
    56    24    51    1
    57    24    52    1
    58    24    53    1
    59    25    54    1
    60    27    55    1
    61    28    56    1
    62    29    57    1
    63    30    58    1
    64    31    59    1
    65    32    60    1
