@<TRIPOS>MOLECULE
5462328
 51 55 0 0 0
SMALL
GASTEIGER

@<TRIPOS>ATOM
      1 O         118.8737  153.0635  147.5958 O.2     1  UNL111     -0.5385
      2 O         117.6936  151.1803  146.0761 O.3     1  UNL111     -0.5034
      3 O         117.6496  155.6450  146.9022 O.3     1  UNL111     -0.4570
      4 O         117.1740  150.3526  148.1474 O.2     1  UNL111     -0.3412
      5 O         116.6460  154.2352  145.3260 O.2     1  UNL111     -0.3381
      6 N         123.9990  152.7264  146.7656 N.4     1  UNL111      0.4275
      7 C         121.1203  152.3860  146.9921 C.3     1  UNL111      0.0569
      8 C         121.9300  151.5925  145.9562 C.3     1  UNL111     -0.0012
      9 C         123.1146  152.5079  145.5142 C.3     1  UNL111     -0.0204
     10 C         119.7093  151.8724  147.3697 C.3     1  UNL111      0.1047
     11 C         121.9859  152.6616  148.2404 C.3     1  UNL111     -0.0252
     12 C         120.7033  153.6862  146.3862 C.3     1  UNL111      0.0253
     13 C         122.6651  153.8533  144.8641 C.3     1  UNL111     -0.0213
     14 C         123.2881  153.3922  147.9220 C.3     1  UNL111     -0.0363
     15 C         121.4151  154.4365  145.4640 C.3     1  UNL111     -0.0422
     16 C         119.0712  150.8870  146.3386 C.3     1  UNL111      0.1110
     17 C         121.0729  151.0968  144.8227 C.2     1  UNL111     -0.0823
     18 C         119.4425  154.0330  146.8170 C.3     1  UNL111      0.1148
     19 C         119.7769  150.8015  145.0059 C.2     1  UNL111     -0.0495
     20 C         125.3218  153.3850  146.4701 C.3     1  UNL111     -0.0442
     21 C         120.8558  155.6515  145.0572 C.3     1  UNL111     -0.0561
     22 C         118.8836  155.2281  146.4216 C.3     1  UNL111      0.1319
     23 C         119.6044  156.0611  145.5591 C.3     1  UNL111     -0.0054
     24 C         116.8404  150.8603  147.0848 C.2     1  UNL111      0.2147
     25 C         115.4372  151.2500  146.7364 C.3     1  UNL111      0.0550
     26 C         116.5861  155.0163  146.2668 C.2     1  UNL111      0.2266
     27 C         115.3074  155.4693  146.9067 C.3     1  UNL111      0.0573
     28 H         124.2528  151.7839  147.0933 H       1  UNL111      0.1328
     29 H         122.3511  150.6936  146.4297 H       1  UNL111      0.0721
     30 H         123.7581  151.9661  144.8098 H       1  UNL111      0.0854
     31 H         119.7479  151.3508  148.3350 H       1  UNL111      0.1477
     32 H         122.2250  151.7041  148.7223 H       1  UNL111      0.0545
     33 H         121.4336  153.2486  148.9858 H       1  UNL111      0.0545
     34 H         122.4455  153.6498  143.8075 H       1  UNL111      0.0615
     35 H         123.4663  154.5974  144.8811 H       1  UNL111      0.0615
     36 H         123.1278  154.4431  147.6618 H       1  UNL111      0.0738
     37 H         123.9646  153.3504  148.7827 H       1  UNL111      0.0738
     38 H         119.1421  149.8679  146.7467 H       1  UNL111      0.1530
     39 H         121.5143  150.9387  143.8403 H       1  UNL111      0.0821
     40 H         119.1916  150.4166  144.1717 H       1  UNL111      0.0975
     41 H         125.1579  154.4425  146.2532 H       1  UNL111      0.0667
     42 H         125.7779  152.8702  145.6210 H       1  UNL111      0.0667
     43 H         125.9534  153.2721  147.3556 H       1  UNL111      0.0667
     44 H         121.3621  156.2832  144.3294 H       1  UNL111      0.0940
     45 H         119.1770  157.0085  145.2389 H       1  UNL111      0.1154
     46 H         115.2420  152.2658  147.0853 H       1  UNL111      0.0793
     47 H         114.7420  150.5527  147.2119 H       1  UNL111      0.0793
     48 H         115.2809  151.1897  145.6556 H       1  UNL111      0.0793
     49 H         115.3200  155.2258  147.9722 H       1  UNL111      0.0797
     50 H         114.4658  154.9468  146.4429 H       1  UNL111      0.0797
     51 H         115.1788  156.5441  146.7576 H       1  UNL111      0.0797
@<TRIPOS>UNITY_ATOM_ATTR
6 1
charge 1
@<TRIPOS>BOND
     1     1    10    1
     2     1    18    1
     3     2    16    1
     4     2    24    1
     5     3    22    1
     6     3    26    1
     7     4    24    2
     8     5    26    2
     9     6     9    1
    10     6    14    1
    11     6    20    1
    12     7     8    1
    13     7    10    1
    14     7    11    1
    15     7    12    1
    16     8     9    1
    17     8    17    1
    18     9    13    1
    19    10    16    1
    20    11    14    1
    21    12    15   ar
    22    12    18   ar
    23    13    15    1
    24    15    21   ar
    25    16    19    1
    26    17    19    2
    27    18    22   ar
    28    21    23   ar
    29    22    23   ar
    30    24    25    1
    31    26    27    1
    32     6    28    1
    33     8    29    1
    34     9    30    1
    35    10    31    1
    36    11    32    1
    37    11    33    1
    38    13    34    1
    39    13    35    1
    40    14    36    1
    41    14    37    1
    42    16    38    1
    43    17    39    1
    44    19    40    1
    45    20    41    1
    46    20    42    1
    47    20    43    1
    48    21    44    1
    49    23    45    1
    50    25    46    1
    51    25    47    1
    52    25    48    1
    53    27    49    1
    54    27    50    1
    55    27    51    1
@<TRIPOS>MOLECULE
117065092
 37 41 0 0 0
SMALL
GASTEIGER

@<TRIPOS>ATOM
      1 O         118.5846  153.1008  145.5261 O.2     1  UNL111     -0.5104
      2 O         117.7094  155.3495  146.9755 O.3     1  UNL111     -0.4704
      3 O         117.4887  150.3250  145.7159 O.3     1  UNL111     -0.4519
      4 O         117.3809  156.2016  144.8443 O.2     1  UNL111     -0.3404
      5 O         117.0622  151.4274  147.7311 O.2     1  UNL111     -0.3380
      6 N         124.0349  153.8488  146.3295 N.4     1  UNL111      0.4425
      7 C         120.9144  153.6532  145.8371 C.3     1  UNL111      0.1181
      8 C         121.7072  154.0319  147.1476 C.3     1  UNL111      0.0717
      9 C         123.0021  153.2946  147.2462 C.3     1  UNL111      0.0452
     10 C         119.4850  154.1809  145.7228 C.3     1  UNL111      0.1944
     11 C         121.8475  154.0220  144.7614 C.3     1  UNL111      0.0759
     12 C         120.6395  152.1801  145.9026 C.2     1  UNL111      0.0485
     13 C         122.6507  151.8948  147.0378 C.3     1  UNL111      0.0646
     14 C         123.3423  154.0823  145.0408 C.3     1  UNL111      0.0452
     15 C         121.5178  151.2387  146.4485 C.2     1  UNL111      0.0048
     16 C         119.0634  155.2547  146.6539 C.3     1  UNL111      0.2112
     17 C         121.1185  155.0430  147.9311 C.2     1  UNL111     -0.0006
     18 C         119.2995  151.9292  145.6899 C.2     1  UNL111      0.1291
     19 C         120.0399  155.4968  147.6727 C.2     1  UNL111      0.0488
     20 C         125.2537  152.9961  146.2305 C.3     1  UNL111     -0.0320
     21 C         121.0603  149.9493  146.6512 C.2     1  UNL111      0.0168
     22 C         118.8274  150.6512  145.8927 C.2     1  UNL111      0.1549
     23 C         119.7218  149.6482  146.3164 C.2     1  UNL111      0.0737
     24 C         116.9580  155.8113  145.9255 C.2     1  UNL111      0.2203
     25 C         115.5075  155.7867  146.3043 C.3     1  UNL111      0.0557
     26 C         116.6864  150.8045  146.7460 C.2     1  UNL111      0.2272
     27 C         115.2605  150.4339  146.4671 C.3     1  UNL111      0.0573
     28 H         124.3189  154.7727  146.6891 H       1  UNL111      0.1528
     29 H         125.0103  152.0465  145.7438 H       1  UNL111      0.0693
     30 H         125.6480  152.8357  147.2384 H       1  UNL111      0.0693
     31 H         125.9913  153.5413  145.6337 H       1  UNL111      0.0693
     32 H         115.2097  154.7671  146.5626 H       1  UNL111      0.0794
     33 H         114.9052  156.1181  145.4536 H       1  UNL111      0.0794
     34 H         115.3320  156.4641  147.1436 H       1  UNL111      0.0794
     35 H         114.9463  150.8629  145.5122 H       1  UNL111      0.0797
     36 H         114.6207  150.8389  147.2563 H       1  UNL111      0.0797
     37 H         115.1562  149.3463  146.4547 H       1  UNL111      0.0797
@<TRIPOS>UNITY_ATOM_ATTR
6 1
charge 1
@<TRIPOS>BOND
     1     1    10    1
     2     1    18    1
     3     2    16    1
     4     2    24    1
     5     3    22    1
     6     3    26    1
     7     4    24    2
     8     5    26    2
     9     6     9    1
    10     6    14    1
    11     6    20    1
    12     7     8    1
    13     7    10    1
    14     7    11    1
    15     7    12    1
    16     8     9    1
    17     8    17    1
    18     9    13    1
    19    10    16    1
    20    11    14    1
    21    12    15    2
    22    12    18    1
    23    13    15    1
    24    15    21    1
    25    16    19    1
    26    17    19    2
    27    18    22    2
    28    21    23    2
    29    22    23    1
    30    24    25    1
    31    26    27    1
    32     6    28    1
    33    20    29    1
    34    20    30    1
    35    20    31    1
    36    25    32    1
    37    25    33    1
    38    25    34    1
    39    27    35    1
    40    27    36    1
    41    27    37    1
@<TRIPOS>MOLECULE
46781685
 31 35 0 0 0
SMALL
GASTEIGER

@<TRIPOS>ATOM
      1 O         118.5697  153.1410  145.6150 O.2     1  UNL111     -0.5104
      2 O         117.7384  155.3887  147.0903 O.3     1  UNL111     -0.4647
      3 O         117.4592  150.3656  145.8028 O.3     1  UNL111     -0.4462
      4 O         117.3368  156.2695  144.9572 O.2     1  UNL111     -0.3303
      5 O         117.0361  151.5037  147.8220 O.2     1  UNL111     -0.3279
      6 N         124.0474  153.8388  146.2989 N.4     1  UNL111      0.4425
      7 C         120.9149  153.6750  145.8745 C.3     1  UNL111      0.1182
      8 C         121.7381  154.0456  147.1673 C.3     1  UNL111      0.0717
      9 C         123.0293  153.2955  147.2389 C.3     1  UNL111      0.0452
     10 C         119.4823  154.2142  145.7940 C.3     1  UNL111      0.1945
     11 C         121.8265  154.0387  144.7800 C.3     1  UNL111      0.0759
     12 C         120.6259  152.2042  145.9436 C.2     1  UNL111      0.0485
     13 C         122.6578  151.8995  147.0356 C.3     1  UNL111      0.0646
     14 C         123.3290  154.0832  145.0263 C.3     1  UNL111      0.0452
     15 C         121.5080  151.2541  146.4676 C.2     1  UNL111      0.0048
     16 C         119.0840  155.2864  146.7390 C.3     1  UNL111      0.2122
     17 C         121.1657  155.0510  147.9703 C.2     1  UNL111     -0.0005
     18 C         119.2799  151.9632  145.7558 C.2     1  UNL111      0.1292
     19 C         120.0842  155.5126  147.7386 C.2     1  UNL111      0.0489
     20 C         125.2546  152.9712  146.1701 C.3     1  UNL111     -0.0320
     21 C         121.0451  149.9670  146.6724 C.2     1  UNL111      0.0168
     22 C         118.8008  150.6869  145.9603 C.2     1  UNL111      0.1559
     23 C         119.6983  149.6766  146.3611 C.2     1  UNL111      0.0737
     24 C         117.0044  155.8849  146.0641 C.2     1  UNL111      0.2650
     25 C         115.5470  155.9772  146.3379 C.3     1  UNL111      0.2318
     26 C         116.7096  150.8587  146.8408 C.2     1  UNL111      0.2721
     27 C         115.2566  150.5668  146.7424 C.3     1  UNL111      0.2345
     28 H         124.3553  154.7573  146.6532 H       1  UNL111      0.1528
     29 H         124.9883  152.0259  145.6872 H       1  UNL111      0.0693
     30 H         125.6694  152.8040  147.1686 H       1  UNL111      0.0693
     31 H         125.9845  153.5092  145.5578 H       1  UNL111      0.0693
@<TRIPOS>UNITY_ATOM_ATTR
6 1
charge 1
@<TRIPOS>BOND
     1     1    10    1
     2     1    18    1
     3     2    16    1
     4     2    24    1
     5     3    22    1
     6     3    26    1
     7     4    24    2
     8     5    26    2
     9     6     9    1
    10     6    14    1
    11     6    20    1
    12     7     8    1
    13     7    10    1
    14     7    11    1
    15     7    12    1
    16     8     9    1
    17     8    17    1
    18     9    13    1
    19    10    16    1
    20    11    14    1
    21    12    15    2
    22    12    18    1
    23    13    15    1
    24    15    21    1
    25    16    19    1
    26    17    19    2
    27    18    22    2
    28    21    23    2
    29    22    23    1
    30    24    25    1
    31    26    27    1
    32     6    28    1
    33    20    29    1
    34    20    30    1
    35    20    31    1
@<TRIPOS>MOLECULE
133587441
 34 38 0 0 0
SMALL
GASTEIGER

@<TRIPOS>ATOM
      1 O         118.5908  153.1058  145.6180 O.2     1  UNL111     -0.5111
      2 O         117.7607  155.3600  147.0749 O.3     1  UNL111     -0.4648
      3 O         117.4132  150.3745  145.8706 O.3     1  UNL111     -0.4462
      4 O         117.3907  156.2022  144.9205 O.2     1  UNL111     -0.3303
      5 O         116.9581  151.6016  147.8308 O.2     1  UNL111     -0.3279
      6 N         123.9397  153.6736  146.2274 N.4     1  UNL111      0.4353
      7 C         120.9636  153.6129  145.8879 C.3     1  UNL111      0.0974
      8 C         121.7663  154.0296  147.1392 C.3     1  UNL111      0.0664
      9 C         122.9915  153.2311  147.2448 C.3     1  UNL111      0.0388
     10 C         119.5120  154.1635  145.8076 C.3     1  UNL111      0.1902
     11 C         121.8520  153.9336  144.6583 C.3     1  UNL111     -0.0087
     12 C         120.6220  152.1454  146.0102 C.2     1  UNL111      0.0441
     13 C         122.6020  151.8358  147.1557 C.3     1  UNL111      0.0634
     14 C         123.3468  153.6730  144.8864 C.3     1  UNL111     -0.0175
     15 C         121.4571  151.1927  146.5944 C.2     1  UNL111      0.0041
     16 C         119.1087  155.2439  146.7396 C.3     1  UNL111      0.2116
     17 C         121.1844  155.0129  147.9585 C.2     1  UNL111     -0.0014
     18 C         119.2749  151.9239  145.8107 C.2     1  UNL111      0.1285
     19 C         120.1014  155.4759  147.7412 C.2     1  UNL111      0.0488
     20 C         125.2120  152.8625  146.2685 C.3     1  UNL111     -0.0370
     21 C         120.9616  149.9252  146.8424 C.2     1  UNL111      0.0167
     22 C         118.7580  150.6679  146.0538 C.2     1  UNL111      0.1558
     23 C         119.6177  149.6520  146.5128 C.2     1  UNL111      0.0737
     24 C         117.0424  155.8398  146.0306 C.2     1  UNL111      0.2650
     25 C         115.5817  155.9456  146.2821 C.3     1  UNL111      0.2318
     26 C         116.6467  150.9272  146.8650 C.2     1  UNL111      0.2721
     27 C         115.1900  150.6675  146.7302 C.3     1  UNL111      0.2345
     28 H         124.2208  154.6392  146.4722 H       1  UNL111      0.1448
     29 H         121.7489  154.9934  144.3911 H       1  UNL111      0.0601
     30 H         121.5300  153.3518  143.7858 H       1  UNL111      0.0601
     31 H         123.9874  153.6810  144.0028 H       1  UNL111      0.0964
     32 H         125.0153  151.8400  145.9301 H       1  UNL111      0.0683
     33 H         125.5957  152.8746  147.2936 H       1  UNL111      0.0683
     34 H         125.9364  153.3474  145.6064 H       1  UNL111      0.0683
@<TRIPOS>UNITY_ATOM_ATTR
6 1
charge 1
@<TRIPOS>BOND
     1     1    10    1
     2     1    18    1
     3     2    16    1
     4     2    24    1
     5     3    22    1
     6     3    26    1
     7     4    24    2
     8     5    26    2
     9     6     9    1
    10     6    14    1
    11     6    20    1
    12     7     8    1
    13     7    10    1
    14     7    11    1
    15     7    12    1
    16     8     9    1
    17     8    17    1
    18     9    13    1
    19    10    16    1
    20    11    14    1
    21    12    15    2
    22    12    18    1
    23    13    15    1
    24    15    21    1
    25    16    19    1
    26    17    19    2
    27    18    22    2
    28    21    23    2
    29    22    23    1
    30    24    25    1
    31    26    27    1
    32     6    28    1
    33    11    29    1
    34    11    30    1
    35    14    31    1
    36    20    32    1
    37    20    33    1
    38    20    34    1
@<TRIPOS>MOLECULE
155935729
 38 42 0 0 0
SMALL
GASTEIGER

@<TRIPOS>ATOM
      1 O         122.0733  153.2379  147.3352 O.2     1  UNL111     -0.5104
      2 O         123.1974  155.2799  145.7907 O.3     1  UNL111     -0.4704
      3 O         122.9591  150.3679  147.3107 O.3     1  UNL111     -0.4519
      4 O         123.6191  156.1623  147.8934 O.2     1  UNL111     -0.3404
      5 O         112.0272  152.6192  147.1405 O.co2   1  UNL111     -0.5607
      6 O         112.9975  150.8557  146.0614 O.co2   1  UNL111     -0.5607
      7 O         123.7482  151.5332  145.4428 O.2     1  UNL111     -0.3380
      8 N         116.7492  154.3331  146.2209 N.4     1  UNL111      0.4546
      9 C         119.8139  153.9511  146.8634 C.3     1  UNL111      0.1185
     10 C         119.1129  154.3628  145.5122 C.3     1  UNL111      0.0736
     11 C         117.7767  153.7110  145.3587 C.3     1  UNL111      0.0559
     12 C         121.2741  154.3749  147.0412 C.3     1  UNL111      0.1944
     13 C         118.8643  154.4098  147.8883 C.3     1  UNL111      0.0782
     14 C         119.9869  152.4611  146.8366 C.2     1  UNL111      0.0486
     15 C         118.0284  152.2929  145.5946 C.3     1  UNL111      0.0666
     16 C         117.3900  154.5577  147.5306 C.3     1  UNL111      0.0579
     17 C         119.0768  151.5722  146.2570 C.2     1  UNL111      0.0049
     18 C         121.8354  155.3643  146.0872 C.3     1  UNL111      0.2112
     19 C         119.8214  155.2918  144.7273 C.2     1  UNL111     -0.0004
     20 C         121.2875  152.1178  147.1433 C.2     1  UNL111      0.1291
     21 C         120.9225  155.6594  145.0239 C.2     1  UNL111      0.0488
     22 C         115.5211  153.5635  146.3384 C.3     1  UNL111      0.0716
     23 C         119.4482  150.2480  146.1127 C.2     1  UNL111      0.0168
     24 C         121.6740  150.8030  147.0044 C.2     1  UNL111      0.1549
     25 C         120.7353  149.8585  146.5441 C.2     1  UNL111      0.0737
     26 C         114.2400  152.7805  146.4524 C.3     1  UNL111      0.1072
     27 C         123.9921  155.6673  146.8372 C.2     1  UNL111      0.2203
     28 C         112.9655  152.0099  146.5630 C.2     1  UNL111      0.0605
     29 C         125.4285  155.4188  146.4858 C.3     1  UNL111      0.0557
     30 C         123.9302  150.8353  146.4322 C.2     1  UNL111      0.2272
     31 C         125.2703  150.3293  146.8762 C.3     1  UNL111      0.0573
     32 H         116.4727  155.2445  145.8324 H       1  UNL111      0.1683
     33 H         125.5698  154.3668  146.2240 H       1  UNL111      0.0794
     34 H         126.0575  155.6446  147.3516 H       1  UNL111      0.0794
     35 H         125.7239  156.0655  145.6561 H       1  UNL111      0.0794
     36 H         125.4441  150.6031  147.9201 H       1  UNL111      0.0797
     37 H         126.0515  150.7923  146.2666 H       1  UNL111      0.0797
     38 H         125.3164  149.2451  146.7494 H       1  UNL111      0.0797
@<TRIPOS>UNITY_ATOM_ATTR
5 1
charge -1
8 1
charge 1
@<TRIPOS>BOND
     1     1    12    1
     2     1    20    1
     3     2    18    1
     4     2    27    1
     5     3    24    1
     6     3    30    1
     7     4    27    2
     8     5    28   ar
     9     6    28   ar
    10     7    30    2
    11     8    11    1
    12     8    16    1
    13     8    22    1
    14     9    10    1
    15     9    12    1
    16     9    13    1
    17     9    14    1
    18    10    11    1
    19    10    19    1
    20    11    15    1
    21    12    18    1
    22    13    16    1
    23    14    17    2
    24    14    20    1
    25    15    17    1
    26    17    23    1
    27    18    21    1
    28    19    21    2
    29    20    24    2
    30    22    26    1
    31    23    25    2
    32    24    25    1
    33    26    28    1
    34    27    29    1
    35    30    31    1
    36     8    32    1
    37    29    33    1
    38    29    34    1
    39    29    35    1
    40    31    36    1
    41    31    37    1
    42    31    38    1
@<TRIPOS>MOLECULE
72720475
 52 57 0 0 0
SMALL
GASTEIGER

@<TRIPOS>ATOM
      1 O         120.4221  150.8080  144.0331 O.3     1  UNL111     -0.4176
      2 O         118.6438  153.1560  147.4252 O.2     1  UNL111     -0.5381
      3 O         117.5605  150.9877  146.0302 O.3     1  UNL111     -0.4987
      4 O         117.5564  155.8467  147.1215 O.3     1  UNL111     -0.4570
      5 O         117.7226  149.6261  147.8639 O.2     1  UNL111     -0.3414
      6 O         116.9875  154.7383  145.1395 O.2     1  UNL111     -0.3381
      7 N         123.8751  152.5297  146.9069 N.4     1  UNL111      0.4278
      8 C         120.9682  152.5188  146.9867 C.3     1  UNL111      0.0614
      9 C         121.7401  152.0061  145.7581 C.3     1  UNL111      0.0178
     10 C         120.8738  152.0683  144.5225 C.3     1  UNL111      0.0642
     11 C         119.4372  151.6296  144.6855 C.3     1  UNL111      0.0889
     12 C         119.5137  152.0033  147.1851 C.3     1  UNL111      0.1090
     13 C         123.0417  152.8473  145.6443 C.3     1  UNL111     -0.0162
     14 C         118.9906  151.1127  146.0264 C.3     1  UNL111      0.1275
     15 C         121.8013  152.3341  148.2713 C.3     1  UNL111     -0.0248
     16 C         120.6760  153.9588  146.7417 C.3     1  UNL111      0.0257
     17 C         122.7978  154.3846  145.4935 C.3     1  UNL111     -0.0209
     18 C         123.2010  152.9359  148.1963 C.3     1  UNL111     -0.0363
     19 C         121.5146  154.8720  146.1171 C.3     1  UNL111     -0.0423
     20 C         119.3662  154.2504  147.0433 C.3     1  UNL111      0.1147
     21 C         125.3007  153.0146  146.8369 C.3     1  UNL111     -0.0442
     22 C         121.0435  156.1794  145.9565 C.3     1  UNL111     -0.0561
     23 C         118.8784  155.5253  146.8441 C.3     1  UNL111      0.1319
     24 C         119.7327  156.5126  146.3446 C.3     1  UNL111     -0.0054
     25 C         117.0525  150.2083  147.0215 C.2     1  UNL111      0.2149
     26 C         115.5621  150.1186  146.9094 C.3     1  UNL111      0.0549
     27 C         116.6836  155.3252  146.1716 C.2     1  UNL111      0.2266
     28 C         115.2752  155.6605  146.5648 C.3     1  UNL111      0.0573
     29 H         123.9622  151.5034  146.9367 H       1  UNL111      0.1327
     30 H         122.0158  150.9545  145.9232 H       1  UNL111      0.0773
     31 H         121.0881  152.8516  143.8086 H       1  UNL111      0.1169
     32 H         118.6686  152.1120  144.0963 H       1  UNL111      0.1305
     33 H         119.4510  151.4160  148.1092 H       1  UNL111      0.1480
     34 H         123.6469  152.4895  144.8026 H       1  UNL111      0.0858
     35 H         119.4291  150.1108  146.1419 H       1  UNL111      0.1578
     36 H         121.8960  151.2587  148.4744 H       1  UNL111      0.0544
     37 H         121.2852  152.7666  149.1385 H       1  UNL111      0.0544
     38 H         122.7271  154.5942  144.4178 H       1  UNL111      0.0615
     39 H         123.6367  154.9746  145.8729 H       1  UNL111      0.0615
     40 H         123.1896  154.0292  148.2452 H       1  UNL111      0.0738
     41 H         123.8198  152.5592  149.0181 H       1  UNL111      0.0738
     42 H         125.3185  154.1017  146.9353 H       1  UNL111      0.0667
     43 H         125.7233  152.6948  145.8813 H       1  UNL111      0.0667
     44 H         125.8497  152.5489  147.6600 H       1  UNL111      0.0667
     45 H         121.6584  156.9404  145.4784 H       1  UNL111      0.0940
     46 H         119.3619  157.5233  146.1899 H       1  UNL111      0.1154
     47 H         115.1478  151.0798  146.5927 H       1  UNL111      0.0793
     48 H         115.1407  149.8807  147.8900 H       1  UNL111      0.0793
     49 H         115.2949  149.3385  146.1930 H       1  UNL111      0.0793
     50 H         115.1638  155.6194  147.6520 H       1  UNL111      0.0797
     51 H         114.5953  154.9207  146.1331 H       1  UNL111      0.0797
     52 H         115.0205  156.6575  146.1985 H       1  UNL111      0.0797
@<TRIPOS>UNITY_ATOM_ATTR
7 1
charge 1
@<TRIPOS>BOND
     1     1    10    1
     2     1    11    1
     3     2    12    1
     4     2    20    1
     5     3    14    1
     6     3    25    1
     7     4    23    1
     8     4    27    1
     9     5    25    2
    10     6    27    2
    11     7    13    1
    12     7    18    1
    13     7    21    1
    14     8     9    1
    15     8    12    1
    16     8    15    1
    17     8    16    1
    18     9    10    1
    19     9    13    1
    20    10    11    1
    21    11    14    1
    22    12    14    1
    23    13    17    1
    24    15    18    1
    25    16    19   ar
    26    16    20   ar
    27    17    19    1
    28    19    22   ar
    29    20    23   ar
    30    22    24   ar
    31    23    24   ar
    32    25    26    1
    33    27    28    1
    34     7    29    1
    35     9    30    1
    36    10    31    1
    37    11    32    1
    38    12    33    1
    39    13    34    1
    40    14    35    1
    41    15    36    1
    42    15    37    1
    43    17    38    1
    44    17    39    1
    45    18    40    1
    46    18    41    1
    47    21    42    1
    48    21    43    1
    49    21    44    1
    50    22    45    1
    51    24    46    1
    52    26    47    1
    53    26    48    1
    54    26    49    1
    55    28    50    1
    56    28    51    1
    57    28    52    1
@<TRIPOS>MOLECULE
61583
 40 41 0 0 0
SMALL
GASTEIGER

@<TRIPOS>ATOM
      1 O         118.9119  154.4173  145.7047 O.3     1  UNL111     -0.5064
      2 O         117.8871  154.2550  147.7512 O.2     1  UNL111     -0.3399
      3 N         123.0560  154.0996  146.4444 N.4     1  UNL111      0.4268
      4 C         120.1203  153.7256  146.1364 C.3     1  UNL111      0.0913
      5 C         120.7682  154.4517  147.3446 C.3     1  UNL111     -0.0058
      6 C         121.1045  153.9283  144.9518 C.3     1  UNL111     -0.0058
      7 C         122.1747  153.9605  147.6573 C.3     1  UNL111     -0.0302
      8 C         122.4890  153.3815  145.2470 C.3     1  UNL111     -0.0302
      9 C         119.7776  152.2388  146.3203 C.3     1  UNL111     -0.0251
     10 C         124.4680  153.6601  146.7344 C.3     1  UNL111     -0.0452
     11 C         119.7402  151.6228  147.5837 C.3     1  UNL111     -0.0672
     12 C         119.4193  151.4465  145.2105 C.3     1  UNL111     -0.0672
     13 C         117.8653  154.5597  146.5690 C.2     1  UNL111      0.2168
     14 C         119.4318  150.2657  147.7233 C.3     1  UNL111     -0.0832
     15 C         119.1125  150.0900  145.3493 C.3     1  UNL111     -0.0832
     16 C         116.6973  155.1813  145.8423 C.3     1  UNL111      0.0573
     17 C         119.1304  149.4968  146.6054 C.3     1  UNL111     -0.0862
     18 C         115.4621  155.2685  146.7212 C.3     1  UNL111     -0.0381
     19 H         123.1132  155.1018  146.2131 H       1  UNL111      0.1310
     20 H         120.1682  154.3653  148.2549 H       1  UNL111      0.0678
     21 H         120.8000  155.5304  147.1350 H       1  UNL111      0.0678
     22 H         121.1792  155.0031  144.7289 H       1  UNL111      0.0678
     23 H         120.7254  153.4919  144.0213 H       1  UNL111      0.0678
     24 H         122.6206  154.5722  148.4492 H       1  UNL111      0.0758
     25 H         122.2002  152.9111  147.9662 H       1  UNL111      0.0758
     26 H         122.4878  152.3080  145.4633 H       1  UNL111      0.0758
     27 H         123.1627  153.5783  144.4063 H       1  UNL111      0.0758
     28 H         124.4590  152.5957  146.9839 H       1  UNL111      0.0663
     29 H         124.8426  154.2566  147.5704 H       1  UNL111      0.0663
     30 H         125.0705  153.8493  145.8422 H       1  UNL111      0.0663
     31 H         119.9038  152.1833  148.5005 H       1  UNL111      0.0926
     32 H         119.3384  151.8743  144.2133 H       1  UNL111      0.0926
     33 H         119.3983  149.8137  148.7127 H       1  UNL111      0.0879
     34 H         118.8354  149.5006  144.4776 H       1  UNL111      0.0879
     35 H         116.4704  154.5695  144.9628 H       1  UNL111      0.0842
     36 H         116.9872  156.1855  145.5161 H       1  UNL111      0.0842
     37 H         118.8750  148.4456  146.7176 H       1  UNL111      0.0874
     38 H         115.1540  154.2756  147.0654 H       1  UNL111      0.0335
     39 H         114.6299  155.7125  146.1664 H       1  UNL111      0.0335
     40 H         115.6514  155.8854  147.6059 H       1  UNL111      0.0335
@<TRIPOS>UNITY_ATOM_ATTR
3 1
charge 1
@<TRIPOS>BOND
     1     1     4    1
     2     1    13    1
     3     2    13    2
     4     3     7    1
     5     3     8    1
     6     3    10    1
     7     4     5    1
     8     4     6    1
     9     4     9    1
    10     5     7    1
    11     6     8    1
    12     9    11   ar
    13     9    12   ar
    14    11    14   ar
    15    12    15   ar
    16    13    16    1
    17    14    17   ar
    18    15    17   ar
    19    16    18    1
    20     3    19    1
    21     5    20    1
    22     5    21    1
    23     6    22    1
    24     6    23    1
    25     7    24    1
    26     7    25    1
    27     8    26    1
    28     8    27    1
    29    10    28    1
    30    10    29    1
    31    10    30    1
    32    11    31    1
    33    12    32    1
    34    14    33    1
    35    15    34    1
    36    16    35    1
    37    16    36    1
    38    17    37    1
    39    18    38    1
    40    18    39    1
    41    18    40    1
@<TRIPOS>MOLECULE
68870
 54 56 0 0 0
SMALL
GASTEIGER

@<TRIPOS>ATOM
      1 CL        113.4539  156.3240  146.4782 Cl      1  UNL111     -0.1289
      2 S         117.1007  152.8896  144.5878 S.O2    1  UNL111      0.0120
      3 O         117.5480  153.8459  143.5986 O.2     1  UNL111     -0.2339
      4 O         116.0452  151.9393  144.3302 O.2     1  UNL111     -0.2339
      5 O         129.4919  154.1305  145.3990 O.co2   1  UNL111     -0.5710
      6 O         128.5718  153.0064  147.1645 O.co2   1  UNL111     -0.5710
      7 N         119.7583  153.7888  146.7583 N.4     1  UNL111      0.4394
      8 N         118.5127  152.0190  145.0549 N.pl3   1  UNL111     -0.2325
      9 C         118.5869  153.2785  147.5433 C.3     1  UNL111      0.0402
     10 C         117.3129  154.0310  147.1932 C.3     1  UNL111      0.0076
     11 C         118.3755  151.7846  147.4572 C.3     1  UNL111     -0.0189
     12 C         116.5978  153.8883  145.9843 C.3     1  UNL111      0.1330
     13 C         118.3188  151.1652  146.2017 C.3     1  UNL111      0.0325
     14 C         121.0947  153.4099  147.3003 C.3     1  UNL111     -0.0351
     15 C         122.1685  153.9513  146.3706 C.3     1  UNL111     -0.0563
     16 C         123.5480  153.5535  146.8831 C.3     1  UNL111     -0.0582
     17 C         116.7918  154.9187  148.1618 C.3     1  UNL111     -0.0494
     18 C         124.6573  154.0789  145.9767 C.3     1  UNL111     -0.0596
     19 C         118.1616  151.0153  148.6120 C.3     1  UNL111     -0.0617
     20 C         115.4014  154.5996  145.7716 C.3     1  UNL111      0.0143
     21 C         117.9926  149.8121  146.0967 C.3     1  UNL111     -0.0452
     22 C         119.1762  151.3793  143.8738 C.3     1  UNL111      0.0206
     23 C         126.0183  153.6393  146.5071 C.3     1  UNL111     -0.0505
     24 C         115.6053  155.6238  147.9404 C.3     1  UNL111     -0.0438
     25 C         117.8815  149.6534  148.5052 C.3     1  UNL111     -0.0798
     26 C         114.9124  155.4584  146.7480 C.3     1  UNL111      0.0303
     27 C         117.7883  149.0557  147.2504 C.3     1  UNL111     -0.0764
     28 C         127.1560  154.1453  145.6321 C.3     1  UNL111     -0.0107
     29 C         128.5428  153.7140  146.1203 C.2     1  UNL111      0.0199
     30 H         119.6996  154.8097  146.6635 H       1  UNL111      0.1421
     31 H         119.6734  153.4022  145.8047 H       1  UNL111      0.1421
     32 H         118.8458  153.5177  148.5834 H       1  UNL111      0.1128
     33 H         121.1364  152.3178  147.3603 H       1  UNL111      0.0733
     34 H         121.1763  153.8420  148.3029 H       1  UNL111      0.0733
     35 H         122.0950  155.0439  146.3072 H       1  UNL111      0.0450
     36 H         122.0220  153.5573  145.3573 H       1  UNL111      0.0450
     37 H         123.6127  152.4601  146.9464 H       1  UNL111      0.0347
     38 H         123.6887  153.9429  147.8992 H       1  UNL111      0.0347
     39 H         117.2933  155.0689  149.1189 H       1  UNL111      0.0970
     40 H         124.6113  155.1734  145.9284 H       1  UNL111      0.0326
     41 H         124.5160  153.7005  144.9572 H       1  UNL111      0.0326
     42 H         118.1911  151.4619  149.6048 H       1  UNL111      0.0950
     43 H         114.8532  154.4864  144.8355 H       1  UNL111      0.1177
     44 H         117.8820  149.3256  145.1310 H       1  UNL111      0.1014
     45 H         119.5609  152.1547  143.2042 H       1  UNL111      0.0768
     46 H         118.4855  150.7341  143.3227 H       1  UNL111      0.0768
     47 H         120.0363  150.7852  144.2011 H       1  UNL111      0.0768
     48 H         126.0516  152.5436  146.5589 H       1  UNL111      0.0355
     49 H         126.1479  154.0100  147.5319 H       1  UNL111      0.0355
     50 H         115.2221  156.2966  148.7060 H       1  UNL111      0.0998
     51 H         117.7125  149.0564  149.4004 H       1  UNL111      0.0884
     52 H         117.5432  147.9979  147.1699 H       1  UNL111      0.0893
     53 H         127.1360  155.2412  145.5941 H       1  UNL111      0.0546
     54 H         127.0291  153.7761  144.6072 H       1  UNL111      0.0546
@<TRIPOS>UNITY_ATOM_ATTR
5 1
charge -1
7 1
charge 1
@<TRIPOS>BOND
     1     1    26    1
     2     2     3    2
     3     2     4    2
     4     2     8    1
     5     2    12    1
     6     5    29   ar
     7     6    29   ar
     8     7     9    1
     9     7    14    1
    10     8    13    1
    11     8    22    1
    12     9    10    1
    13     9    11    1
    14    10    12   ar
    15    10    17   ar
    16    11    13   ar
    17    11    19   ar
    18    12    20   ar
    19    13    21   ar
    20    14    15    1
    21    15    16    1
    22    16    18    1
    23    17    24   ar
    24    18    23    1
    25    19    25   ar
    26    20    26   ar
    27    21    27   ar
    28    23    28    1
    29    24    26   ar
    30    25    27   ar
    31    28    29    1
    32     7    30    1
    33     7    31    1
    34     9    32    1
    35    14    33    1
    36    14    34    1
    37    15    35    1
    38    15    36    1
    39    16    37    1
    40    16    38    1
    41    17    39    1
    42    18    40    1
    43    18    41    1
    44    19    42    1
    45    20    43    1
    46    21    44    1
    47    22    45    1
    48    22    46    1
    49    22    47    1
    50    23    48    1
    51    23    49    1
    52    24    50    1
    53    25    51    1
    54    27    52    1
    55    28    53    1
    56    28    54    1
@<TRIPOS>MOLECULE
5462507
 46 50 0 0 0
SMALL
GASTEIGER

@<TRIPOS>ATOM
      1 O         118.5519  153.7902  147.5558 O.2     1  UNL111     -0.5395
      2 O         116.8188  152.4718  146.0037 O.3     1  UNL111     -0.5034
      3 O         118.3246  156.5903  146.8075 O.2     1  UNL111     -0.5485
      4 O         115.9783  151.8867  148.0540 O.2     1  UNL111     -0.3412
      5 N         123.2423  151.6559  146.8080 N.4     1  UNL111      0.4275
      6 C         120.4249  152.3518  146.9913 C.3     1  UNL111      0.0568
      7 C         120.9167  151.3171  145.9690 C.3     1  UNL111     -0.0012
      8 C         122.3552  151.7529  145.5435 C.3     1  UNL111     -0.0204
      9 C         118.9161  152.3765  147.3445 C.3     1  UNL111      0.1046
     10 C         121.3141  152.3115  148.2527 C.3     1  UNL111     -0.0252
     11 C         120.5064  153.7104  146.3780 C.3     1  UNL111      0.0241
     12 C         122.4173  153.1651  144.8820 C.3     1  UNL111     -0.0213
     13 C         122.7947  152.5362  147.9534 C.3     1  UNL111     -0.0363
     14 C         121.4443  154.1543  145.4615 C.3     1  UNL111     -0.0424
     15 C         117.9830  151.6855  146.2984 C.3     1  UNL111      0.1110
     16 C         119.9547  151.1473  144.8235 C.2     1  UNL111     -0.0823
     17 C         119.4474  154.4849  146.7903 C.3     1  UNL111      0.1061
     18 C         118.6356  151.3361  144.9822 C.2     1  UNL111     -0.0495
     19 C         124.7163  151.8090  146.5316 C.3     1  UNL111     -0.0442
     20 C         121.3449  155.4833  145.0397 C.3     1  UNL111     -0.0573
     21 C         119.3462  155.7969  146.3941 C.3     1  UNL111      0.0919
     22 C         120.3083  156.3078  145.5242 C.3     1  UNL111     -0.0140
     23 C         115.8800  152.4821  146.9896 C.2     1  UNL111      0.2147
     24 C         114.7323  153.3652  146.6092 C.3     1  UNL111      0.0550
     25 H         117.7633  156.0460  147.3909 H       1  UNL111      0.3393
     26 H         123.1470  150.6863  147.1409 H       1  UNL111      0.1328
     27 H         120.9873  150.3307  146.4502 H       1  UNL111      0.0721
     28 H         122.7760  151.0133  144.8509 H       1  UNL111      0.0854
     29 H         118.7494  151.8794  148.3091 H       1  UNL111      0.1477
     30 H         121.1942  151.3336  148.7379 H       1  UNL111      0.0545
     31 H         120.9933  153.0591  148.9898 H       1  UNL111      0.0545
     32 H         122.1543  153.0430  143.8229 H       1  UNL111      0.0615
     33 H         123.4286  153.5802  144.9094 H       1  UNL111      0.0615
     34 H         123.0176  153.5749  147.6900 H       1  UNL111      0.0738
     35 H         123.4014  152.2642  148.8242 H       1  UNL111      0.0738
     36 H         117.6615  150.7164  146.7074 H       1  UNL111      0.1530
     37 H         120.3265  150.8260  143.8519 H       1  UNL111      0.0821
     38 H         117.9668  151.1685  144.1388 H       1  UNL111      0.0975
     39 H         124.9355  152.8561  146.3127 H       1  UNL111      0.0667
     40 H         124.9748  151.1632  145.6889 H       1  UNL111      0.0667
     41 H         125.2564  151.4866  147.4260 H       1  UNL111      0.0667
     42 H         122.0430  155.8934  144.3122 H       1  UNL111      0.0939
     43 H         120.2318  157.3398  145.1880 H       1  UNL111      0.1139
     44 H         114.9978  154.4093  146.7897 H       1  UNL111      0.0793
     45 H         113.8576  153.0994  147.2093 H       1  UNL111      0.0793
     46 H         114.4745  153.2155  145.5571 H       1  UNL111      0.0793
@<TRIPOS>UNITY_ATOM_ATTR
5 1
charge 1
@<TRIPOS>BOND
     1     1     9    1
     2     1    17    1
     3     2    15    1
     4     2    23    1
     5     3    21    1
     6     4    23    2
     7     5     8    1
     8     5    13    1
     9     5    19    1
    10     6     7    1
    11     6     9    1
    12     6    10    1
    13     6    11    1
    14     7     8    1
    15     7    16    1
    16     8    12    1
    17     9    15    1
    18    10    13    1
    19    11    14   ar
    20    11    17   ar
    21    12    14    1
    22    14    20   ar
    23    15    18    1
    24    16    18    2
    25    17    21   ar
    26    20    22   ar
    27    21    22   ar
    28    23    24    1
    29     3    25    1
    30     5    26    1
    31     7    27    1
    32     8    28    1
    33     9    29    1
    34    10    30    1
    35    10    31    1
    36    12    32    1
    37    12    33    1
    38    13    34    1
    39    13    35    1
    40    15    36    1
    41    16    37    1
    42    18    38    1
    43    19    39    1
    44    19    40    1
    45    19    41    1
    46    20    42    1
    47    22    43    1
    48    24    44    1
    49    24    45    1
    50    24    46    1
@<TRIPOS>MOLECULE
71719125
 44 45 0 0 0
SMALL
GASTEIGER

@<TRIPOS>ATOM
      1 CL        124.9038  155.2452  146.5361 Cl      1  UNL111     -0.1190
      2 CL        125.9826  152.1799  146.3564 Cl      1  UNL111     -0.1199
      3 O         119.7048  154.1629  147.3119 O.2     1  UNL111     -0.3680
      4 N         117.3703  155.0529  146.5286 N.4     1  UNL111      0.4264
      5 N         119.2398  152.8392  145.4982 N.am    1  UNL111     -0.3169
      6 C         117.0773  153.5817  146.7974 C.3     1  UNL111     -0.0222
      7 C         117.7913  152.6249  145.7753 C.3     1  UNL111      0.0063
      8 C         115.5686  153.3016  146.8282 C.3     1  UNL111     -0.0495
      9 C         117.5385  151.1709  146.2204 C.3     1  UNL111     -0.0372
     10 C         115.3037  151.8464  147.2167 C.3     1  UNL111     -0.0554
     11 C         116.0437  150.8650  146.3137 C.3     1  UNL111     -0.0544
     12 C         117.0123  155.5877  145.1818 C.3     1  UNL111     -0.0447
     13 C         116.9396  155.9678  147.6401 C.3     1  UNL111     -0.0447
     14 C         119.7344  152.3117  144.2218 C.3     1  UNL111     -0.0066
     15 C         120.1038  153.3864  146.4458 C.2     1  UNL111      0.1839
     16 C         121.5540  153.0877  146.3918 C.3     1  UNL111      0.0518
     17 C         122.4631  154.1475  146.4709 C.3     1  UNL111     -0.0062
     18 C         122.0131  151.7672  146.3422 C.3     1  UNL111     -0.0388
     19 C         123.8374  153.8893  146.4571 C.3     1  UNL111      0.0578
     20 C         123.3869  151.5123  146.3289 C.3     1  UNL111     -0.0362
     21 C         124.3017  152.5704  146.3812 C.3     1  UNL111      0.0524
     22 H         118.4066  155.0696  146.6030 H       1  UNL111      0.1318
     23 H         117.4786  153.3844  147.8005 H       1  UNL111      0.0878
     24 H         117.2890  152.7616  144.8079 H       1  UNL111      0.0921
     25 H         115.1196  153.4990  145.8477 H       1  UNL111      0.0477
     26 H         115.0618  153.9488  147.5516 H       1  UNL111      0.0477
     27 H         118.0178  150.9909  147.1912 H       1  UNL111      0.0442
     28 H         117.9934  150.4662  145.5152 H       1  UNL111      0.0442
     29 H         114.2272  151.6449  147.1748 H       1  UNL111      0.0352
     30 H         115.6161  151.6870  148.2563 H       1  UNL111      0.0352
     31 H         115.9010  149.8444  146.6868 H       1  UNL111      0.0340
     32 H         115.6056  150.8989  145.3084 H       1  UNL111      0.0340
     33 H         115.9257  155.5710  145.0717 H       1  UNL111      0.0666
     34 H         117.4961  154.9798  144.4154 H       1  UNL111      0.0666
     35 H         117.3863  156.6131  145.1132 H       1  UNL111      0.0666
     36 H         115.8542  156.0857  147.6008 H       1  UNL111      0.0666
     37 H         117.4339  156.9320  147.4915 H       1  UNL111      0.0666
     38 H         117.2569  155.5345  148.5921 H       1  UNL111      0.0666
     39 H         119.0336  152.5801  143.4258 H       1  UNL111      0.0661
     40 H         119.8145  151.2238  144.2869 H       1  UNL111      0.0661
     41 H         120.7088  152.7354  143.9663 H       1  UNL111      0.0661
     42 H         122.1047  155.1716  146.5459 H       1  UNL111      0.1098
     43 H         121.3167  150.9318  146.3311 H       1  UNL111      0.0985
     44 H         123.7433  150.4842  146.2878 H       1  UNL111      0.1014
@<TRIPOS>UNITY_ATOM_ATTR
4 1
charge 1
@<TRIPOS>BOND
     1     1    19    1
     2     2    21    1
     3     3    15    2
     4     4     6    1
     5     4    12    1
     6     4    13    1
     7     5     7    1
     8     5    14    1
     9     5    15   am
    10     6     7    1
    11     6     8    1
    12     7     9    1
    13     8    10    1
    14     9    11    1
    15    10    11    1
    16    15    16    1
    17    16    17   ar
    18    16    18   ar
    19    17    19   ar
    20    18    20   ar
    21    19    21   ar
    22    20    21   ar
    23     4    22    1
    24     6    23    1
    25     7    24    1
    26     8    25    1
    27     8    26    1
    28     9    27    1
    29     9    28    1
    30    10    29    1
    31    10    30    1
    32    11    31    1
    33    11    32    1
    34    12    33    1
    35    12    34    1
    36    12    35    1
    37    13    36    1
    38    13    37    1
    39    13    38    1
    40    14    39    1
    41    14    40    1
    42    14    41    1
    43    17    42    1
    44    18    43    1
    45    20    44    1
