@<TRIPOS>MOLECULE
5284569
 44 48 0 0 0
SMALL
GASTEIGER

@<TRIPOS>ATOM
      1 O         118.3128  152.1346  147.6592 O.2     1  UNL111     -0.5307
      2 O         118.2334  149.8360  146.0357 O.2     1  UNL111     -0.4040
      3 O         116.1398  153.8345  147.0136 O.2     1  UNL111     -0.5683
      4 N         123.0598  154.0206  146.9160 N.4     1  UNL111      0.4270
      5 C         120.6071  152.4724  147.0451 C.3     1  UNL111      0.0597
      6 C         121.7251  152.1228  146.0574 C.3     1  UNL111     -0.0136
      7 C         122.4027  153.4566  145.6367 C.3     1  UNL111     -0.0250
      8 C         119.5376  151.4095  147.3608 C.3     1  UNL111      0.1355
      9 C         121.2288  153.0710  148.3270 C.3     1  UNL111     -0.0250
     10 C         119.6929  153.4751  146.4343 C.3     1  UNL111      0.0248
     11 C         121.2222  151.2869  144.8745 C.3     1  UNL111     -0.0274
     12 C         121.4301  154.4809  144.9670 C.3     1  UNL111     -0.0224
     13 C         122.0979  154.2975  148.0516 C.3     1  UNL111     -0.0366
     14 C         120.0344  154.4589  145.5279 C.3     1  UNL111     -0.0426
     15 C         120.5129  150.0361  145.3772 C.3     1  UNL111      0.0289
     16 C         119.3092  150.4042  146.2165 C.2     1  UNL111      0.1274
     17 C         118.3993  153.2634  146.8740 C.3     1  UNL111      0.1094
     18 C         123.9757  155.1926  146.6656 C.3     1  UNL111     -0.0445
     19 C         119.0102  155.3114  145.1186 C.3     1  UNL111     -0.0571
     20 C         117.3703  154.1042  146.4982 C.3     1  UNL111      0.0931
     21 C         117.6945  155.1456  145.6151 C.3     1  UNL111     -0.0129
     22 C         115.0510  154.6189  146.5448 C.3     1  UNL111      0.0331
     23 H         123.6904  153.2812  147.2556 H       1  UNL111      0.1324
     24 H         122.4697  151.5011  146.5766 H       1  UNL111      0.0627
     25 H         123.2386  153.2513  144.9573 H       1  UNL111      0.0835
     26 H         119.8152  150.8205  148.2433 H       1  UNL111      0.1606
     27 H         121.8419  152.3022  148.8161 H       1  UNL111      0.0545
     28 H         120.4562  153.3515  149.0547 H       1  UNL111      0.0545
     29 H         122.0714  150.9960  144.2453 H       1  UNL111      0.0427
     30 H         120.5402  151.8619  144.2379 H       1  UNL111      0.0427
     31 H         121.3521  154.2137  143.9050 H       1  UNL111      0.0613
     32 H         121.8286  155.4986  145.0072 H       1  UNL111      0.0613
     33 H         121.5076  155.1805  147.7872 H       1  UNL111      0.0738
     34 H         122.7020  154.5381  148.9334 H       1  UNL111      0.0738
     35 H         121.1804  149.4138  145.9829 H       1  UNL111      0.0688
     36 H         120.1763  149.4392  144.5226 H       1  UNL111      0.0688
     37 H         123.3763  156.0762  146.4375 H       1  UNL111      0.0667
     38 H         124.6393  154.9358  145.8363 H       1  UNL111      0.0667
     39 H         124.5625  155.3544  147.5740 H       1  UNL111      0.0667
     40 H         119.1996  156.1045  144.3967 H       1  UNL111      0.0939
     41 H         116.9338  155.8396  145.2663 H       1  UNL111      0.1142
     42 H         114.1385  154.2419  147.0166 H       1  UNL111      0.1074
     43 H         114.9306  154.5227  145.4606 H       1  UNL111      0.1074
     44 H         115.1693  155.6674  146.8370 H       1  UNL111      0.1074
@<TRIPOS>UNITY_ATOM_ATTR
4 1
charge 1
@<TRIPOS>BOND
     1     1     8    1
     2     1    17    1
     3     2    16    2
     4     3    20    1
     5     3    22    1
     6     4     7    1
     7     4    13    1
     8     4    18    1
     9     5     6    1
    10     5     8    1
    11     5     9    1
    12     5    10    1
    13     6     7    1
    14     6    11    1
    15     7    12    1
    16     8    16    1
    17     9    13    1
    18    10    14   ar
    19    10    17   ar
    20    11    15    1
    21    12    14    1
    22    14    19   ar
    23    15    16    1
    24    17    20   ar
    25    19    21   ar
    26    20    21   ar
    27     4    23    1
    28     6    24    1
    29     7    25    1
    30     8    26    1
    31     9    27    1
    32     9    28    1
    33    11    29    1
    34    11    30    1
    35    12    31    1
    36    12    32    1
    37    13    33    1
    38    13    34    1
    39    15    35    1
    40    15    36    1
    41    18    37    1
    42    18    38    1
    43    18    39    1
    44    19    40    1
    45    21    41    1
    46    22    42    1
    47    22    43    1
    48    22    44    1
@<TRIPOS>MOLECULE
16217589
 26 30 0 0 0
SMALL
GASTEIGER

@<TRIPOS>ATOM
      1 O         118.0217  152.0249  147.0879 O.2     1  UNL111     -0.5057
      2 O         118.8382  149.1446  146.8316 O.2     1  UNL111     -0.3923
      3 O         115.8580  153.8465  146.4489 O.2     1  UNL111     -0.4914
      4 N         123.2825  153.7936  146.6850 N.4     1  UNL111      0.4418
      5 C         120.3709  152.5523  146.9223 C.3     1  UNL111      0.1171
      6 C         121.4393  152.3840  145.7695 C.3     1  UNL111      0.0550
      7 C         122.2630  153.6350  145.6165 C.3     1  UNL111      0.0380
      8 C         119.3292  151.4781  147.1376 C.3     1  UNL111      0.2114
      9 C         121.1985  152.8671  148.1028 C.3     1  UNL111      0.0754
     10 C         119.4747  153.6896  146.5339 C.2     1  UNL111      0.0477
     11 C         121.7501  151.0537  145.4224 C.3     1  UNL111      0.0568
     12 C         121.2855  154.7099  145.4928 C.3     1  UNL111      0.0624
     13 C         122.5836  153.4771  147.9491 C.3     1  UNL111      0.0448
     14 C         119.9053  154.8339  145.8620 C.2     1  UNL111      0.0042
     15 C         120.8188  149.9572  145.9013 C.3     1  UNL111      0.1286
     16 C         119.5938  150.0833  146.6623 C.2     1  UNL111      0.1745
     17 C         118.1443  153.3438  146.6879 C.2     1  UNL111      0.1259
     18 C         123.9524  155.1279  146.6674 C.3     1  UNL111     -0.0323
     19 C         118.9510  155.7278  145.4238 C.2     1  UNL111      0.0158
     20 C         117.1634  154.2260  146.2872 C.2     1  UNL111      0.1340
     21 C         117.5916  155.4328  145.6810 C.2     1  UNL111      0.0678
     22 C         114.9169  154.8424  146.1613 C.3     1  UNL111      0.2602
     23 H         124.0103  153.0750  146.5500 H       1  UNL111      0.1524
     24 H         123.2337  155.9126  146.9231 H       1  UNL111      0.0693
     25 H         124.3786  155.2884  145.6727 H       1  UNL111      0.0693
     26 H         124.7567  155.1033  147.4089 H       1  UNL111      0.0693
@<TRIPOS>UNITY_ATOM_ATTR
4 1
charge 1
@<TRIPOS>BOND
     1     1     8    1
     2     1    17    1
     3     2    16    2
     4     3    20    1
     5     3    22    1
     6     4     7    1
     7     4    13    1
     8     4    18    1
     9     5     6    1
    10     5     8    1
    11     5     9    1
    12     5    10    1
    13     6     7    1
    14     6    11    1
    15     7    12    1
    16     8    16    1
    17     9    13    1
    18    10    14    2
    19    10    17    1
    20    11    15    1
    21    12    14    1
    22    14    19    1
    23    15    16    1
    24    17    20    2
    25    19    21    2
    26    20    21    1
    27     4    23    1
    28    18    24    1
    29    18    25    1
    30    18    26    1
@<TRIPOS>MOLECULE
129318760
 44 48 0 0 0
SMALL
GASTEIGER

@<TRIPOS>ATOM
      1 O         121.5706  152.1368  145.1443 O.2     1  UNL1111    -0.5307
      2 O         115.8273  153.0631  145.6331 O.co2   1  UNL1111    -0.7568
      3 O         121.6899  149.8136  146.7199 O.2     1  UNL1111    -0.4040
      4 O         123.7525  153.8539  145.7398 O.2     1  UNL1111    -0.5683
      5 N         116.7668  153.9950  146.0393 N.3     1  UNL1111     0.4018
      6 C         119.2841  152.4671  145.8198 C.3     1  UNL1111     0.0594
      7 C         118.2088  152.1047  146.8471 C.3     1  UNL1111    -0.0164
      8 C         117.5219  153.4395  147.2690 C.3     1  UNL1111    -0.0435
      9 C         118.6091  153.0609  144.5626 C.3     1  UNL1111    -0.0278
     10 C         120.3448  151.4119  145.4650 C.3     1  UNL1111     0.1355
     11 C         120.2148  153.4713  146.4043 C.3     1  UNL1111     0.0248
     12 C         118.7579  151.2805  148.0154 C.3     1  UNL1111    -0.0276
     13 C         117.7156  154.2610  144.8864 C.3     1  UNL1111    -0.0551
     14 C         118.5144  154.4460  147.9341 C.3     1  UNL1111    -0.0252
     15 C         119.8937  154.4447  147.3295 C.3     1  UNL1111    -0.0428
     16 C         119.4453  150.0301  147.4841 C.3     1  UNL1111     0.0289
     17 C         120.6112  150.3964  146.5921 C.2     1  UNL1111     0.1274
     18 C         121.4966  153.2667  145.9299 C.3     1  UNL1111     0.1094
     19 C         116.0066  155.2513  146.3655 C.3     1  UNL1111    -0.0630
     20 C         120.9218  155.3024  147.7154 C.3     1  UNL1111    -0.0571
     21 C         122.5300  154.1134  146.2829 C.3     1  UNL1111     0.0931
     22 C         122.2230  155.1494  147.1803 C.3     1  UNL1111    -0.0129
     23 C         124.8296  154.6881  146.1415 C.3     1  UNL1111     0.0331
     24 H         117.4703  151.4586  146.3526 H       1  UNL1111     0.0625
     25 H         116.7159  153.2240  147.9834 H       1  UNL1111     0.0802
     26 H         118.0013  152.2803  144.0865 H       1  UNL1111     0.0543
     27 H         119.3512  153.3705  143.8155 H       1  UNL1111     0.0543
     28 H         120.0474  150.8306  144.5839 H       1  UNL1111     0.1606
     29 H         117.9347  150.9906  148.6787 H       1  UNL1111     0.0427
     30 H         119.4654  151.8570  148.6216 H       1  UNL1111     0.0427
     31 H         118.3033  155.1453  145.1521 H       1  UNL1111     0.0705
     32 H         117.0877  154.5149  144.0241 H       1  UNL1111     0.0705
     33 H         118.6281  154.1507  148.9856 H       1  UNL1111     0.0611
     34 H         118.1229  155.4656  147.9384 H       1  UNL1111     0.0611
     35 H         118.7529  149.4055  146.9093 H       1  UNL1111     0.0688
     36 H         119.8194  149.4351  148.3243 H       1  UNL1111     0.0688
     37 H         115.4047  155.0539  147.2561 H       1  UNL1111     0.0633
     38 H         115.3619  155.4740  145.5098 H       1  UNL1111     0.0633
     39 H         116.7104  156.0691  146.5247 H       1  UNL1111     0.0633
     40 H         120.7405  156.0879  148.4462 H       1  UNL1111     0.0939
     41 H         122.9858  155.8476  147.5126 H       1  UNL1111     0.1142
     42 H         125.7342  154.3343  145.6377 H       1  UNL1111     0.1074
     43 H         125.0020  154.6211  147.2208 H       1  UNL1111     0.1074
     44 H         124.6602  155.7250  145.8326 H       1  UNL1111     0.1074
@<TRIPOS>UNITY_ATOM_ATTR
2 1
charge -1
5 1
charge 1
@<TRIPOS>BOND
     1     1    10    1
     2     1    18    1
     3     2     5    1
     4     3    17    2
     5     4    21    1
     6     4    23    1
     7     5     8    1
     8     5    13    1
     9     5    19    1
    10     6     7    1
    11     6     9    1
    12     6    10    1
    13     6    11    1
    14     7     8    1
    15     7    12    1
    16     8    14    1
    17     9    13    1
    18    10    17    1
    19    11    15   ar
    20    11    18   ar
    21    12    16    1
    22    14    15    1
    23    15    20   ar
    24    16    17    1
    25    18    21   ar
    26    20    22   ar
    27    21    22   ar
    28     7    24    1
    29     8    25    1
    30     9    26    1
    31     9    27    1
    32    10    28    1
    33    12    29    1
    34    12    30    1
    35    13    31    1
    36    13    32    1
    37    14    33    1
    38    14    34    1
    39    16    35    1
    40    16    36    1
    41    19    37    1
    42    19    38    1
    43    19    39    1
    44    20    40    1
    45    22    41    1
    46    23    42    1
    47    23    43    1
    48    23    44    1
@<TRIPOS>MOLECULE
71748782
 29 33 0 0 0
SMALL
GASTEIGER

@<TRIPOS>ATOM
      1 O         121.4417  151.6369  145.7935 O.2     1  UNL111     -0.5059
      2 O         120.2360  148.9511  146.4614 O.2     1  UNL111     -0.3923
      3 O         123.8709  153.1887  146.0462 O.2     1  UNL111     -0.5647
      4 N         116.5264  154.1913  146.2920 N.4     1  UNL111      0.4418
      5 C         119.2130  152.5209  146.0322 C.3     1  UNL111      0.1171
      6 C         118.2358  152.6605  147.2682 C.3     1  UNL111      0.0550
      7 C         117.6057  154.0270  147.2989 C.3     1  UNL111      0.0380
      8 C         120.0736  151.2863  145.8997 C.3     1  UNL111      0.2114
      9 C         118.3345  152.7973  144.8787 C.3     1  UNL111      0.0754
     10 C         120.2822  153.5567  146.1969 C.2     1  UNL111      0.0474
     11 C         117.7750  151.4459  147.8154 C.3     1  UNL111      0.0568
     12 C         118.7247  154.9567  147.2040 C.3     1  UNL111      0.0624
     13 C         117.0636  153.6166  145.0398 C.3     1  UNL111      0.0448
     14 C         120.0721  154.8286  146.7293 C.2     1  UNL111      0.0042
     15 C         118.4998  150.1721  147.4279 C.3     1  UNL111      0.1286
     16 C         119.6564  150.0154  146.5707 C.2     1  UNL111      0.1745
     17 C         121.5335  153.0010  146.0127 C.2     1  UNL111      0.1235
     18 C         116.0451  155.5984  146.1686 C.3     1  UNL111     -0.0323
     19 C         121.1745  155.6197  146.9786 C.2     1  UNL111      0.0155
     20 C         122.6546  153.7721  146.2329 C.2     1  UNL111      0.1170
     21 C         122.4546  155.0958  146.6833 C.2     1  UNL111      0.0652
     22 C         124.9991  154.0261  146.2881 C.3     1  UNL111      0.0339
     23 H         115.7253  153.6069  146.5762 H       1  UNL111      0.1524
     24 H         116.8361  156.2315  145.7550 H       1  UNL111      0.0693
     25 H         115.7346  155.9466  147.1582 H       1  UNL111      0.0693
     26 H         115.1816  155.5945  145.4965 H       1  UNL111      0.0693
     27 H         125.9003  153.4369  146.0934 H       1  UNL111      0.1075
     28 H         125.0309  154.3527  147.3330 H       1  UNL111      0.1075
     29 H         125.0055  154.8846  145.6080 H       1  UNL111      0.1075
@<TRIPOS>UNITY_ATOM_ATTR
4 1
charge 1
@<TRIPOS>BOND
     1     1     8    1
     2     1    17    1
     3     2    16    2
     4     3    20    1
     5     3    22    1
     6     4     7    1
     7     4    13    1
     8     4    18    1
     9     5     6    1
    10     5     8    1
    11     5     9    1
    12     5    10    1
    13     6     7    1
    14     6    11    1
    15     7    12    1
    16     8    16    1
    17     9    13    1
    18    10    14    2
    19    10    17    1
    20    11    15    1
    21    12    14    1
    22    14    19    1
    23    15    16    1
    24    17    20    2
    25    19    21    2
    26    20    21    1
    27     4    23    1
    28    18    24    1
    29    18    25    1
    30    18    26    1
    31    22    27    1
    32    22    28    1
    33    22    29    1
@<TRIPOS>MOLECULE
91753850
 49 53 0 0 0
SMALL
GASTEIGER

@<TRIPOS>ATOM
      1 F         125.1945  154.4063  145.6908 F       1  UNL111     -0.1516
      2 F         124.8130  152.2616  145.5791 F       1  UNL111     -0.1516
      3 F         124.6360  153.3051  147.4859 F       1  UNL111     -0.1516
      4 O         120.6095  152.3426  147.3757 O.2     1  UNL111     -0.5323
      5 O         122.3912  154.5107  146.8633 O.3     1  UNL111     -0.4351
      6 O         120.6968  149.5637  147.0157 O.2     1  UNL111     -0.5683
      7 O         122.2983  153.3682  144.8457 O.2     1  UNL111     -0.2758
      8 N         116.0979  155.0415  146.5305 N.4     1  UNL111      0.4271
      9 C         118.6613  153.7762  147.0084 C.3     1  UNL111      0.0592
     10 C         118.3970  154.5207  145.6908 C.3     1  UNL111     -0.0101
     11 C         116.8858  154.3949  145.3877 C.3     1  UNL111     -0.0240
     12 C         120.1353  153.7119  147.4654 C.3     1  UNL111      0.1270
     13 C         117.7760  154.2665  148.1725 C.3     1  UNL111     -0.0250
     14 C         118.4307  152.3574  146.6552 C.3     1  UNL111      0.0249
     15 C         116.4744  152.8836  145.1860 C.3     1  UNL111     -0.0223
     16 C         119.0432  155.9060  145.7227 C.3     1  UNL111     -0.0169
     17 C         116.2933  154.3439  147.8506 C.3     1  UNL111     -0.0365
     18 C         117.3870  151.8864  145.8732 C.3     1  UNL111     -0.0425
     19 C         119.5399  151.5919  146.9466 C.3     1  UNL111      0.1093
     20 C         121.0090  154.7008  146.7197 C.2     1  UNL111      0.1008
     21 C         120.5158  155.7368  146.0105 C.2     1  UNL111     -0.0351
     22 C         114.6370  155.2493  146.2153 C.3     1  UNL111     -0.0444
     23 C         117.3727  150.5194  145.5980 C.3     1  UNL111     -0.0571
     24 C         119.5661  150.2377  146.6618 C.3     1  UNL111      0.0932
     25 C         118.4423  149.6966  146.0188 C.3     1  UNL111     -0.0129
     26 C         122.9117  153.7142  145.8548 C.2     1  UNL111      0.3995
     27 C         120.7784  148.1935  146.6451 C.3     1  UNL111      0.0331
     28 C         124.3763  153.4172  146.1517 C.3     1  UNL111      0.4685
     29 H         116.4650  155.9954  146.6430 H       1  UNL111      0.1324
     30 H         118.9038  153.9999  144.8582 H       1  UNL111      0.0644
     31 H         116.6291  154.9697  144.4901 H       1  UNL111      0.0838
     32 H         120.2213  153.9688  148.5304 H       1  UNL111      0.1588
     33 H         118.1136  155.2652  148.4801 H       1  UNL111      0.0545
     34 H         117.9014  153.6194  149.0508 H       1  UNL111      0.0545
     35 H         116.5496  152.6840  144.1084 H       1  UNL111      0.0613
     36 H         115.4370  152.6906  145.4728 H       1  UNL111      0.0613
     37 H         118.5961  156.5714  146.4674 H       1  UNL111      0.0508
     38 H         118.9216  156.3810  144.7425 H       1  UNL111      0.0508
     39 H         115.8241  153.3568  147.7947 H       1  UNL111      0.0738
     40 H         115.7694  154.9327  148.6116 H       1  UNL111      0.0738
     41 H         121.2004  156.4460  145.5482 H       1  UNL111      0.1003
     42 H         114.1305  154.2827  146.1872 H       1  UNL111      0.0667
     43 H         114.5662  155.7623  145.2530 H       1  UNL111      0.0667
     44 H         114.2142  155.8794  147.0026 H       1  UNL111      0.0667
     45 H         116.5775  150.0780  144.9995 H       1  UNL111      0.0939
     46 H         118.3958  148.6409  145.7648 H       1  UNL111      0.1142
     47 H         121.7525  147.8160  146.9709 H       1  UNL111      0.1074
     48 H         120.7205  148.0737  145.5582 H       1  UNL111      0.1074
     49 H         120.0062  147.6034  147.1494 H       1  UNL111      0.1074
@<TRIPOS>UNITY_ATOM_ATTR
8 1
charge 1
@<TRIPOS>BOND
     1     1    28    1
     2     2    28    1
     3     3    28    1
     4     4    12    1
     5     4    19    1
     6     5    20    1
     7     5    26    1
     8     6    24    1
     9     6    27    1
    10     7    26    2
    11     8    11    1
    12     8    17    1
    13     8    22    1
    14     9    10    1
    15     9    12    1
    16     9    13    1
    17     9    14    1
    18    10    11    1
    19    10    16    1
    20    11    15    1
    21    12    20    1
    22    13    17    1
    23    14    18   ar
    24    14    19   ar
    25    15    18    1
    26    16    21    1
    27    18    23   ar
    28    19    24   ar
    29    20    21    2
    30    23    25   ar
    31    24    25   ar
    32    26    28    1
    33     8    29    1
    34    10    30    1
    35    11    31    1
    36    12    32    1
    37    13    33    1
    38    13    34    1
    39    15    35    1
    40    15    36    1
    41    16    37    1
    42    16    38    1
    43    17    39    1
    44    17    40    1
    45    21    41    1
    46    22    42    1
    47    22    43    1
    48    22    44    1
    49    23    45    1
    50    25    46    1
    51    27    47    1
    52    27    48    1
    53    27    49    1
@<TRIPOS>MOLECULE
151288939
 45 49 0 0 0
SMALL
GASTEIGER

@<TRIPOS>ATOM
      1 O         121.4861  154.2346  147.5851 O.2     1  UNL111     -0.5304
      2 O         117.7688  150.3775  145.4383 O.3     1  UNL111     -0.4363
      3 O         121.5612  156.3457  145.7324 O.2     1  UNL111     -0.4040
      4 O         123.6641  152.5045  147.0763 O.2     1  UNL111     -0.5683
      5 N         116.7910  152.1882  147.0308 N.4     1  UNL111      0.4300
      6 C         119.1922  153.8404  147.0172 C.3     1  UNL111      0.0628
      7 C         118.0633  154.1077  146.0211 C.3     1  UNL111     -0.0059
      8 C         117.3995  152.7487  145.7185 C.3     1  UNL111      0.0017
      9 C         120.2603  154.9303  147.2308 C.3     1  UNL111      0.1359
     10 C         118.5763  153.3672  148.3530 C.3     1  UNL111     -0.0244
     11 C         120.1049  152.7885  146.4818 C.3     1  UNL111      0.0349
     12 C         118.5445  154.8451  144.7660 C.3     1  UNL111     -0.0260
     13 C         118.3591  151.6469  145.1216 C.3     1  UNL111      0.0445
     14 C         117.7371  152.1014  148.2047 C.3     1  UNL111     -0.0348
     15 C         119.7662  151.7287  145.6565 C.3     1  UNL111     -0.0102
     16 C         119.2614  156.1321  145.1532 C.3     1  UNL111      0.0291
     17 C         120.4792  155.8241  145.9955 C.2     1  UNL111      0.1275
     18 C         121.4001  153.0442  146.8965 C.3     1  UNL111      0.1112
     19 C         115.4476  152.7525  147.3777 C.3     1  UNL111     -0.0427
     20 C         120.8039  150.8611  145.3081 C.3     1  UNL111     -0.0471
     21 C         122.4356  152.1851  146.5859 C.3     1  UNL111      0.0936
     22 C         122.1194  151.0771  145.7865 C.3     1  UNL111     -0.0111
     23 C         124.7591  151.6921  146.6742 C.3     1  UNL111      0.0331
     24 H         118.3389  149.6874  145.0458 H       1  UNL111      0.2437
     25 H         116.6265  151.1952  146.7682 H       1  UNL111      0.1349
     26 H         117.3240  154.7679  146.4957 H       1  UNL111      0.0647
     27 H         116.5483  152.8634  145.0367 H       1  UNL111      0.0969
     28 H         119.9879  155.5976  148.0572 H       1  UNL111      0.1606
     29 H         117.9495  154.1700  148.7631 H       1  UNL111      0.0545
     30 H         119.3540  153.1775  149.1043 H       1  UNL111      0.0545
     31 H         117.6837  155.0851  144.1308 H       1  UNL111      0.0429
     32 H         119.2144  154.2186  144.1660 H       1  UNL111      0.0429
     33 H         118.3871  151.7607  144.0314 H       1  UNL111      0.1224
     34 H         118.3669  151.2202  148.0441 H       1  UNL111      0.0741
     35 H         117.1444  151.9101  149.1059 H       1  UNL111      0.0741
     36 H         118.6066  156.8017  145.7207 H       1  UNL111      0.0688
     37 H         119.5825  156.6591  144.2482 H       1  UNL111      0.0688
     38 H         115.5709  153.7919  147.6894 H       1  UNL111      0.0670
     39 H         115.0259  152.1520  148.1881 H       1  UNL111      0.0670
     40 H         114.8057  152.6803  146.4962 H       1  UNL111      0.0670
     41 H         120.6314  150.0132  144.6474 H       1  UNL111      0.0962
     42 H         122.8867  150.3659  145.4904 H       1  UNL111      0.1144
     43 H         125.6673  152.1091  147.1196 H       1  UNL111      0.1074
     44 H         124.8834  151.7059  145.5863 H       1  UNL111      0.1074
     45 H         124.6449  150.6683  147.0452 H       1  UNL111      0.1074
@<TRIPOS>UNITY_ATOM_ATTR
5 1
charge 1
@<TRIPOS>BOND
     1     1     9    1
     2     1    18    1
     3     2    13    1
     4     3    17    2
     5     4    21    1
     6     4    23    1
     7     5     8    1
     8     5    14    1
     9     5    19    1
    10     6     7    1
    11     6     9    1
    12     6    10    1
    13     6    11    1
    14     7     8    1
    15     7    12    1
    16     8    13    1
    17     9    17    1
    18    10    14    1
    19    11    15   ar
    20    11    18   ar
    21    12    16    1
    22    13    15    1
    23    15    20   ar
    24    16    17    1
    25    18    21   ar
    26    20    22   ar
    27    21    22   ar
    28     2    24    1
    29     5    25    1
    30     7    26    1
    31     8    27    1
    32     9    28    1
    33    10    29    1
    34    10    30    1
    35    12    31    1
    36    12    32    1
    37    13    33    1
    38    14    34    1
    39    14    35    1
    40    16    36    1
    41    16    37    1
    42    19    38    1
    43    19    39    1
    44    19    40    1
    45    20    41    1
    46    22    42    1
    47    23    43    1
    48    23    44    1
    49    23    45    1
@<TRIPOS>MOLECULE
117065091
 29 33 0 0 0
SMALL
GASTEIGER

@<TRIPOS>ATOM
      1 O         121.6567  154.1933  147.1570 O.2     1  UNL111     -0.5059
      2 O         120.8208  157.0815  146.8780 O.2     1  UNL111     -0.3923
      3 O         123.8282  152.3590  146.6048 O.2     1  UNL111     -0.5647
      4 N         116.4156  152.4087  146.6439 N.4     1  UNL111      0.4418
      5 C         119.3179  153.6587  146.9388 C.3     1  UNL111      0.1171
      6 C         118.2784  153.8108  145.7577 C.3     1  UNL111      0.0550
      7 C         117.4619  152.5563  145.5998 C.3     1  UNL111      0.0380
      8 C         120.3496  154.7382  147.1681 C.3     1  UNL111      0.2114
      9 C         118.4608  153.3570  148.1020 C.3     1  UNL111      0.0754
     10 C         120.2218  152.5180  146.5866 C.2     1  UNL111      0.0474
     11 C         117.9739  155.1359  145.3861 C.3     1  UNL111      0.0568
     12 C         118.4422  151.4805  145.5124 C.3     1  UNL111      0.0624
     13 C         117.0821  152.7415  147.9213 C.3     1  UNL111      0.0448
     14 C         119.8126  151.3642  145.9186 C.2     1  UNL111      0.0042
     15 C         118.8894  156.2398  145.8776 C.3     1  UNL111      0.1286
     16 C         120.0914  156.1283  146.6775 C.2     1  UNL111      0.1745
     17 C         121.5449  152.8687  146.7703 C.2     1  UNL111      0.1235
     18 C         115.7494  151.0736  146.6254 C.3     1  UNL111     -0.0323
     19 C         120.7803  150.4659  145.5191 C.2     1  UNL111      0.0155
     20 C         122.5348  151.9819  146.4055 C.2     1  UNL111      0.1170
     21 C         122.1314  150.7663  145.8095 C.2     1  UNL111      0.0652
     22 C         124.8130  151.3933  146.2434 C.3     1  UNL111      0.0339
     23 H         115.6914  153.1252  146.4824 H       1  UNL111      0.1524
     24 H         116.4631  150.2936  146.9077 H       1  UNL111      0.0693
     25 H         115.3475  150.9004  145.6224 H       1  UNL111      0.0693
     26 H         114.9275  151.1043  147.3470 H       1  UNL111      0.0693
     27 H         125.7957  151.8139  146.4769 H       1  UNL111      0.1075
     28 H         124.7851  151.1834  145.1689 H       1  UNL111      0.1075
     29 H         124.6958  150.4734  146.8260 H       1  UNL111      0.1075
@<TRIPOS>UNITY_ATOM_ATTR
4 1
charge 1
@<TRIPOS>BOND
     1     1     8    1
     2     1    17    1
     3     2    16    2
     4     3    20    1
     5     3    22    1
     6     4     7    1
     7     4    13    1
     8     4    18    1
     9     5     6    1
    10     5     8    1
    11     5     9    1
    12     5    10    1
    13     6     7    1
    14     6    11    1
    15     7    12    1
    16     8    16    1
    17     9    13    1
    18    10    14    2
    19    10    17    1
    20    11    15    1
    21    12    14    1
    22    14    19    1
    23    15    16    1
    24    17    20    2
    25    19    21    2
    26    20    21    1
    27     4    23    1
    28    18    24    1
    29    18    25    1
    30    18    26    1
    31    22    27    1
    32    22    28    1
    33    22    29    1
@<TRIPOS>MOLECULE
5284371
 44 48 0 0 0
SMALL
GASTEIGER

@<TRIPOS>ATOM
      1 O         118.3496  152.1030  147.7190 O.3     1  UNL111     -0.5437
      2 O         117.8932  150.4392  145.7564 O.3     1  UNL111     -0.4348
      3 O         116.2209  153.8677  147.1504 O.3     1  UNL111     -0.5684
      4 N         123.1430  153.8716  146.8898 N.4     1  UNL111      0.4275
      5 C         120.6534  152.3791  147.0576 C.3     1  UNL111      0.0532
      6 C         121.7331  152.0061  146.0348 C.3     1  UNL111     -0.0026
      7 C         122.4329  153.3368  145.6201 C.3     1  UNL111     -0.0206
      8 C         119.5570  151.3392  147.3695 C.3     1  UNL111      0.0902
      9 C         121.3281  152.9314  148.3335 C.3     1  UNL111     -0.0259
     10 C         119.7544  153.4314  146.5030 C.ar    1  UNL111      0.0234
     11 C         121.4705  154.3901  144.9859 C.3     1  UNL111     -0.0213
     12 C         122.2207  154.1419  148.0589 C.3     1  UNL111     -0.0364
     13 C         120.0990  154.4167  145.6000 C.ar    1  UNL111     -0.0425
     14 C         119.2367  150.3331  146.2186 C.3     1  UNL111      0.0605
     15 C         121.2115  151.1854  144.8913 C.2     1  UNL111     -0.0869
     16 C         118.4670  153.2571  146.9726 C.ar    1  UNL111      0.1060
     17 C         120.1036  150.4378  144.9966 C.2     1  UNL111     -0.0672
     18 C         124.0683  155.0313  146.6281 C.3     1  UNL111     -0.0442
     19 C         119.0935  155.3117  145.2353 C.ar    1  UNL111     -0.0571
     20 C         117.4520  154.1290  146.6295 C.ar    1  UNL111      0.0926
     21 C         117.7862  155.1788  145.7614 C.ar    1  UNL111     -0.0130
     22 C         115.1404  154.6676  146.6859 C.3     1  UNL111      0.0331
     23 H         117.3813  150.9009  146.4493 H       1  UNL111      0.2424
     24 H         123.7688  153.1129  147.1941 H       1  UNL111      0.1328
     25 H         122.4844  151.3665  146.5217 H       1  UNL111      0.0720
     26 H         123.2469  153.1249  144.9156 H       1  UNL111      0.0854
     27 H         119.8364  150.7578  148.2574 H       1  UNL111      0.1417
     28 H         121.9350  152.1361  148.7867 H       1  UNL111      0.0544
     29 H         120.5848  153.2142  149.0903 H       1  UNL111      0.0544
     30 H         121.3415  154.1230  143.9287 H       1  UNL111      0.0615
     31 H         121.9052  155.3935  145.0068 H       1  UNL111      0.0615
     32 H         121.6454  155.0453  147.8334 H       1  UNL111      0.0738
     33 H         122.8560  154.3469  148.9277 H       1  UNL111      0.0738
     34 H         119.3488  149.3175  146.6164 H       1  UNL111      0.1221
     35 H         121.7749  151.1507  143.9601 H       1  UNL111      0.0812
     36 H         119.7848  149.8368  144.1449 H       1  UNL111      0.0909
     37 H         123.4764  155.9290  146.4386 H       1  UNL111      0.0667
     38 H         124.6971  154.7800  145.7704 H       1  UNL111      0.0667
     39 H         124.6903  155.1661  147.5173 H       1  UNL111      0.0667
     40 H         119.2899  156.1071  144.5180 H       1  UNL111      0.0939
     41 H         117.0389  155.8996  145.4396 H       1  UNL111      0.1142
     42 H         114.2233  154.2949  147.1522 H       1  UNL111      0.1074
     43 H         115.0216  154.5816  145.6006 H       1  UNL111      0.1074
     44 H         115.2680  155.7123  146.9877 H       1  UNL111      0.1074
@<TRIPOS>UNITY_ATOM_ATTR
4 1
charge 1
@<TRIPOS>BOND
     1     1     8    1
     2     1    16    1
     3     2    14    1
     4     3    20    1
     5     3    22    1
     6     4     7    1
     7     4    12    1
     8     4    18    1
     9     5     6    1
    10     5     8    1
    11     5     9    1
    12     5    10    1
    13     6     7    1
    14     6    15    1
    15     7    11    1
    16     8    14    1
    17     9    12    1
    18    10    13   ar
    19    10    16   ar
    20    11    13    1
    21    13    19   ar
    22    14    17    1
    23    15    17    2
    24    16    20   ar
    25    19    21   ar
    26    20    21   ar
    27     2    23    1
    28     4    24    1
    29     6    25    1
    30     7    26    1
    31     8    27    1
    32     9    28    1
    33     9    29    1
    34    11    30    1
    35    11    31    1
    36    12    32    1
    37    12    33    1
    38    14    34    1
    39    15    35    1
    40    17    36    1
    41    18    37    1
    42    18    38    1
    43    18    39    1
    44    19    40    1
    45    21    41    1
    46    22    42    1
    47    22    43    1
    48    22    44    1
@<TRIPOS>MOLECULE
5284570
 41 45 0 0 0
SMALL
GASTEIGER

@<TRIPOS>ATOM
      1 O         117.9081  152.6727  147.6964 O.2     1  UNL111     -0.5309
      2 O         117.2170  150.5190  146.0672 O.2     1  UNL111     -0.4040
      3 O         116.2450  154.9651  146.9772 O.2     1  UNL111     -0.5485
      4 N         122.9883  153.2669  146.8978 N.4     1  UNL111      0.4270
      5 C         120.2186  152.4089  147.0605 C.3     1  UNL111      0.0597
      6 C         121.1909  151.7929  146.0488 C.3     1  UNL111     -0.0136
      7 C         122.1867  152.9102  145.6260 C.3     1  UNL111     -0.0250
      8 C         118.9109  151.6577  147.3853 C.3     1  UNL111      0.1355
      9 C         120.9949  152.8094  148.3350 C.3     1  UNL111     -0.0250
     10 C         119.5898  153.6216  146.4735 C.3     1  UNL111      0.0246
     11 C         120.4683  151.1307  144.8688 C.3     1  UNL111     -0.0274
     12 C         121.5059  154.1625  144.9835 C.3     1  UNL111     -0.0224
     13 C         122.1503  153.7704  148.0533 C.3     1  UNL111     -0.0366
     14 C         120.1612  154.4983  145.5696 C.3     1  UNL111     -0.0426
     15 C         119.4611  150.1040  145.3727 C.3     1  UNL111      0.0289
     16 C         118.4102  150.7666  146.2354 C.2     1  UNL111      0.1274
     17 C         118.2914  153.7399  146.9226 C.3     1  UNL111      0.1084
     18 C         124.1730  154.1653  146.6392 C.3     1  UNL111     -0.0445
     19 C         119.3877  155.5945  145.1803 C.3     1  UNL111     -0.0573
     20 C         117.5254  154.8171  146.5528 C.3     1  UNL111      0.0922
     21 C         118.0801  155.7611  145.6878 C.3     1  UNL111     -0.0139
     22 H         116.0075  154.1519  147.4630 H       1  UNL111      0.3393
     23 H         123.4122  152.3853  147.2185 H       1  UNL111      0.1324
     24 H         121.7560  150.9922  146.5489 H       1  UNL111      0.0627
     25 H         122.9293  152.5026  144.9296 H       1  UNL111      0.0835
     26 H         119.0312  151.0089  148.2610 H       1  UNL111      0.1606
     27 H         121.3935  151.9016  148.8073 H       1  UNL111      0.0545
     28 H         120.3332  153.2731  149.0782 H       1  UNL111      0.0545
     29 H         121.2023  150.6340  144.2236 H       1  UNL111      0.0427
     30 H         119.9531  151.8722  144.2475 H       1  UNL111      0.0427
     31 H         121.3441  153.9387  143.9209 H       1  UNL111      0.0613
     32 H         122.1568  155.0403  145.0249 H       1  UNL111      0.0613
     33 H         121.8065  154.7799  147.8073 H       1  UNL111      0.0738
     34 H         122.8100  153.8338  148.9257 H       1  UNL111      0.0738
     35 H         119.9494  149.3203  145.9617 H       1  UNL111      0.0688
     36 H         118.9662  149.6281  144.5192 H       1  UNL111      0.0688
     37 H         123.8197  155.1772  146.4314 H       1  UNL111      0.0667
     38 H         124.7328  153.7566  145.7945 H       1  UNL111      0.0667
     39 H         124.7970  154.1567  147.5371 H       1  UNL111      0.0667
     40 H         119.7657  156.3209  144.4629 H       1  UNL111      0.0939
     41 H         117.4797  156.6124  145.3721 H       1  UNL111      0.1139
@<TRIPOS>UNITY_ATOM_ATTR
4 1
charge 1
@<TRIPOS>BOND
     1     1     8    1
     2     1    17    1
     3     2    16    2
     4     3    20    1
     5     4     7    1
     6     4    13    1
     7     4    18    1
     8     5     6    1
     9     5     8    1
    10     5     9    1
    11     5    10    1
    12     6     7    1
    13     6    11    1
    14     7    12    1
    15     8    16    1
    16     9    13    1
    17    10    14   ar
    18    10    17   ar
    19    11    15    1
    20    12    14    1
    21    14    19   ar
    22    15    16    1
    23    17    20   ar
    24    19    21   ar
    25    20    21   ar
    26     3    22    1
    27     4    23    1
    28     6    24    1
    29     7    25    1
    30     8    26    1
    31     9    27    1
    32     9    28    1
    33    11    29    1
    34    11    30    1
    35    12    31    1
    36    12    32    1
    37    13    33    1
    38    13    34    1
    39    15    35    1
    40    15    36    1
    41    18    37    1
    42    18    38    1
    43    18    39    1
    44    19    40    1
    45    21    41    1
@<TRIPOS>MOLECULE
5284603
 45 49 0 0 0
SMALL
GASTEIGER

@<TRIPOS>ATOM
      1 O         118.2821  154.0845  145.1215 O.2     1  UNL111     -0.5288
      2 O         122.7615  154.4416  146.0390 O.3     1  UNL111     -0.4354
      3 O         118.3897  156.3772  146.7172 O.2     1  UNL111     -0.4035
      4 O         115.9500  152.6143  145.7786 O.2     1  UNL111     -0.5683
      5 N         122.8249  151.7919  145.9097 N.4     1  UNL111      0.4301
      6 C         120.5286  153.5353  145.7567 C.3     1  UNL111      0.0838
      7 C         121.6720  153.8059  146.7514 C.3     1  UNL111      0.0494
      8 C         122.2051  152.4008  147.1949 C.3     1  UNL111      0.0013
      9 C         119.5732  154.6925  145.4142 C.3     1  UNL111      0.1428
     10 C         121.0642  152.8395  144.4795 C.3     1  UNL111     -0.0175
     11 C         119.5163  152.6411  146.3843 C.3     1  UNL111      0.0337
     12 C         121.2413  154.7079  147.9143 C.3     1  UNL111     -0.0022
     13 C         121.1459  151.4693  147.8515 C.3     1  UNL111     -0.0147
     14 C         121.8477  151.5615  144.7818 C.3     1  UNL111     -0.0334
     15 C         119.7578  151.6369  147.2996 C.3     1  UNL111     -0.0392
     16 C         120.6386  156.0082  147.3922 C.3     1  UNL111      0.0363
     17 C         119.4197  155.7278  146.5436 C.2     1  UNL111      0.1306
     18 C         118.2521  152.9699  145.9309 C.3     1  UNL111      0.1114
     19 C         123.7226  150.6161  146.1475 C.3     1  UNL111     -0.0427
     20 C         118.6537  150.8932  147.7127 C.3     1  UNL111     -0.0567
     21 C         117.1449  152.2368  146.3092 C.3     1  UNL111      0.0934
     22 C         117.3624  151.1808  147.2076 C.3     1  UNL111     -0.0129
     23 C         114.7882  151.9398  146.2432 C.3     1  UNL111      0.0331
     24 H         123.1834  155.1209  146.6035 H       1  UNL111      0.2436
     25 H         123.4340  152.5591  145.5700 H       1  UNL111      0.1349
     26 H         123.0597  152.5278  147.8709 H       1  UNL111      0.0968
     27 H         119.9102  155.2400  144.5261 H       1  UNL111      0.1627
     28 H         121.7125  153.5352  143.9308 H       1  UNL111      0.0565
     29 H         120.2501  152.5876  143.7871 H       1  UNL111      0.0565
     30 H         122.1081  154.9520  148.5403 H       1  UNL111      0.0555
     31 H         120.5127  154.2040  148.5594 H       1  UNL111      0.0555
     32 H         121.0993  151.7235  148.9184 H       1  UNL111      0.0633
     33 H         121.4463  150.4191  147.7851 H       1  UNL111      0.0633
     34 H         121.1985  150.7272  145.0652 H       1  UNL111      0.0743
     35 H         122.4299  151.2619  143.9034 H       1  UNL111      0.0743
     36 H         121.3536  156.5804  146.7923 H       1  UNL111      0.0708
     37 H         120.3387  156.6337  148.2403 H       1  UNL111      0.0708
     38 H         123.1134  149.7536  146.4261 H       1  UNL111      0.0670
     39 H         124.4254  150.8761  146.9428 H       1  UNL111      0.0670
     40 H         124.2686  150.4171  145.2215 H       1  UNL111      0.0670
     41 H         118.7625  150.0893  148.4394 H       1  UNL111      0.0940
     42 H         116.5367  150.5662  147.5577 H       1  UNL111      0.1142
     43 H         113.9202  152.3903  145.7525 H       1  UNL111      0.1074
     44 H         114.6637  152.0648  147.3240 H       1  UNL111      0.1074
     45 H         114.8139  150.8800  145.9691 H       1  UNL111      0.1074
@<TRIPOS>UNITY_ATOM_ATTR
5 1
charge 1
@<TRIPOS>BOND
     1     1     9    1
     2     1    18    1
     3     2     7    1
     4     3    17    2
     5     4    21    1
     6     4    23    1
     7     5     8    1
     8     5    14    1
     9     5    19    1
    10     6     7    1
    11     6     9    1
    12     6    10    1
    13     6    11    1
    14     7     8    1
    15     7    12    1
    16     8    13    1
    17     9    17    1
    18    10    14    1
    19    11    15   ar
    20    11    18   ar
    21    12    16    1
    22    13    15    1
    23    15    20   ar
    24    16    17    1
    25    18    21   ar
    26    20    22   ar
    27    21    22   ar
    28     2    24    1
    29     5    25    1
    30     8    26    1
    31     9    27    1
    32    10    28    1
    33    10    29    1
    34    12    30    1
    35    12    31    1
    36    13    32    1
    37    13    33    1
    38    14    34    1
    39    14    35    1
    40    16    36    1
    41    16    37    1
    42    19    38    1
    43    19    39    1
    44    19    40    1
    45    20    41    1
    46    22    42    1
    47    23    43    1
    48    23    44    1
    49    23    45    1
@<TRIPOS>MOLECULE
119
 16 15 0 0 0
SMALL
GASTEIGER

@<TRIPOS>ATOM
      1 O         117.1804  153.7235  146.4268 O.co2   1  UNL111     -0.5707
      2 O         118.3618  151.7612  146.4431 O.co2   1  UNL111     -0.5707
      3 N         123.1356  152.7250  146.4369 N.4     1  UNL111      0.4359
      4 C         120.7310  152.9078  146.4249 C.3     1  UNL111     -0.0442
      5 C         119.5181  153.8197  146.3741 C.3     1  UNL111     -0.0057
      6 C         122.0152  153.6961  146.3819 C.3     1  UNL111     -0.0337
      7 C         118.2192  153.0139  146.4189 C.2     1  UNL111      0.0220
      8 H         124.0472  153.1910  146.4070 H       1  UNL111      0.1369
      9 H         123.0711  152.0686  145.6480 H       1  UNL111      0.1369
     10 H         123.0751  152.1662  147.2980 H       1  UNL111      0.1369
     11 H         120.7059  152.2064  145.5802 H       1  UNL111      0.0483
     12 H         120.7030  152.3026  147.3409 H       1  UNL111      0.0483
     13 H         119.5267  154.4138  145.4528 H       1  UNL111      0.0574
     14 H         119.5286  154.5128  147.2236 H       1  UNL111      0.0574
     15 H         122.1284  154.2624  145.4531 H       1  UNL111      0.0723
     16 H         122.1274  154.3629  147.2417 H       1  UNL111      0.0723
@<TRIPOS>UNITY_ATOM_ATTR
1 1
charge -1
3 1
charge 1
@<TRIPOS>BOND
     1     1     7   ar
     2     2     7   ar
     3     3     6    1
     4     4     5    1
     5     4     6    1
     6     5     7    1
     7     3     8    1
     8     3     9    1
     9     3    10    1
    10     4    11    1
    11     4    12    1
    12     5    13    1
    13     5    14    1
    14     6    15    1
    15     6    16    1
@<TRIPOS>MOLECULE
5284543
 46 50 0 0 0
SMALL
GASTEIGER

@<TRIPOS>ATOM
      1 O         121.3704  154.1369  147.7341 O.3     1  UNL111     -0.5455
      2 O         121.1893  155.4733  145.3334 O.3     1  UNL111     -0.4416
      3 O         123.6178  152.5645  147.0405 O.3     1  UNL111     -0.5684
      4 N         116.7412  151.9966  146.8796 N.4     1  UNL111      0.4269
      5 C         119.0862  153.6961  147.1026 C.3     1  UNL111      0.0474
      6 C         117.9281  154.0410  146.1642 C.3     1  UNL111     -0.0179
      7 C         120.0942  154.8066  147.4587 C.3     1  UNL111      0.0841
      8 C         117.3489  152.7013  145.6415 C.3     1  UNL111     -0.0256
      9 C         118.5118  152.9878  148.3521 C.3     1  UNL111     -0.0273
     10 C         120.0527  152.7738  146.4530 C.ar    1  UNL111      0.0218
     11 C         118.3085  155.0352  145.0651 C.3     1  UNL111     -0.0398
     12 C         120.2966  155.8950  146.3670 C.3     1  UNL111      0.0437
     13 C         118.3851  151.7998  144.8955 C.3     1  UNL111     -0.0225
     14 C         118.9824  156.2682  145.6818 C.3     1  UNL111     -0.0235
     15 C         117.7212  151.7256  148.0025 C.3     1  UNL111     -0.0369
     16 C         119.7677  151.8324  145.4860 C.ar    1  UNL111     -0.0430
     17 C         121.3300  153.0149  146.9267 C.ar    1  UNL111      0.1054
     18 C         115.9261  150.7745  146.5455 C.3     1  UNL111     -0.0445
     19 C         120.8330  151.0465  145.0494 C.ar    1  UNL111     -0.0571
     20 C         122.4017  152.2464  146.5166 C.ar    1  UNL111      0.0926
     21 C         122.1338  151.2393  145.5764 C.ar    1  UNL111     -0.0130
     22 C         124.7349  151.8081  146.5906 C.3     1  UNL111      0.0331
     23 H         122.0301  155.2299  145.7694 H       1  UNL111      0.2393
     24 H         116.0554  152.6617  147.2619 H       1  UNL111      0.1324
     25 H         117.1481  154.5478  146.7529 H       1  UNL111      0.0619
     26 H         119.7725  155.3099  148.3795 H       1  UNL111      0.1393
     27 H         116.4947  152.8957  144.9819 H       1  UNL111      0.0835
     28 H         117.8532  153.6855  148.8866 H       1  UNL111      0.0541
     29 H         119.3036  152.7157  149.0620 H       1  UNL111      0.0541
     30 H         117.4040  155.3486  144.5301 H       1  UNL111      0.0396
     31 H         118.9673  154.5774  144.3189 H       1  UNL111      0.0396
     32 H         120.7493  156.7830  146.8224 H       1  UNL111      0.1114
     33 H         118.4678  152.1751  143.8671 H       1  UNL111      0.0613
     34 H         118.0367  150.7654  144.8254 H       1  UNL111      0.0613
     35 H         118.3058  156.7453  146.4005 H       1  UNL111      0.0481
     36 H         119.1766  156.9911  144.8804 H       1  UNL111      0.0481
     37 H         118.3675  150.8981  147.6936 H       1  UNL111      0.0738
     38 H         117.1340  151.3973  148.8673 H       1  UNL111      0.0738
     39 H         116.5969  149.9590  146.2678 H       1  UNL111      0.0667
     40 H         115.2480  151.0289  145.7272 H       1  UNL111      0.0667
     41 H         115.3500  150.5067  147.4354 H       1  UNL111      0.0667
     42 H         120.6880  150.2926  144.2773 H       1  UNL111      0.0939
     43 H         122.9285  150.6035  145.1945 H       1  UNL111      0.1142
     44 H         125.6249  152.1906  147.0994 H       1  UNL111      0.1074
     45 H         124.8869  151.9322  145.5133 H       1  UNL111      0.1074
     46 H         124.6272  150.7511  146.8554 H       1  UNL111      0.1074
@<TRIPOS>UNITY_ATOM_ATTR
4 1
charge 1
@<TRIPOS>BOND
     1     1     7    1
     2     1    17    1
     3     2    12    1
     4     3    20    1
     5     3    22    1
     6     4     8    1
     7     4    15    1
     8     4    18    1
     9     5     6    1
    10     5     7    1
    11     5     9    1
    12     5    10    1
    13     6     8    1
    14     6    11    1
    15     7    12    1
    16     8    13    1
    17     9    15    1
    18    10    16   ar
    19    10    17   ar
    20    11    14    1
    21    12    14    1
    22    13    16    1
    23    16    19   ar
    24    17    20   ar
    25    19    21   ar
    26    20    21   ar
    27     2    23    1
    28     4    24    1
    29     6    25    1
    30     7    26    1
    31     8    27    1
    32     9    28    1
    33     9    29    1
    34    11    30    1
    35    11    31    1
    36    12    32    1
    37    13    33    1
    38    13    34    1
    39    14    35    1
    40    14    36    1
    41    15    37    1
    42    15    38    1
    43    18    39    1
    44    18    40    1
    45    18    41    1
    46    19    42    1
    47    21    43    1
    48    22    44    1
    49    22    45    1
    50    22    46    1
@<TRIPOS>MOLECULE
702
 9 8 0 0 0
SMALL
GASTEIGER

@<TRIPOS>ATOM
      1 O         118.6875  153.4035  146.4092 O.3     1  UNL1111    -0.4604
      2 C         119.8072  152.5305  146.4070 C.3     1  UNL1111    -0.0050
      3 C         121.0759  153.3561  146.4079 C.3     1  UNL1111    -0.0465
      4 H         117.8909  152.8459  146.4081 H       1  UNL1111     0.2326
      5 H         119.7603  151.8994  145.5145 H       1  UNL1111     0.0844
      6 H         119.7612  151.8961  147.2973 H       1  UNL1111     0.0844
      7 H         121.1112  154.0101  145.5303 H       1  UNL1111     0.0369
      8 H         121.9604  152.7131  146.4049 H       1  UNL1111     0.0369
      9 H         121.1134  154.0048  147.2894 H       1  UNL1111     0.0369
@<TRIPOS>BOND
     1     1     2    1
     2     2     3    1
     3     1     4    1
     4     2     5    1
     5     2     6    1
     6     3     7    1
     7     3     8    1
     8     3     9    1
@<TRIPOS>MOLECULE
3102
 24 25 0 0 0
SMALL
GASTEIGER

@<TRIPOS>ATOM
      1 O         119.8609  150.7917  146.4074 O.2     1  UNL1111    -0.3932
      2 C         118.5631  152.7431  146.4625 C.3     1  UNL1111     0.0243
      3 C         121.1535  152.7465  146.3533 C.3     1  UNL1111     0.0243
      4 C         119.8593  152.0203  146.4077 C.2     1  UNL1111     0.1503
      5 C         118.4196  153.9459  147.1650 C.3     1  UNL1111    -0.0551
      6 C         121.2941  153.9497  145.6509 C.3     1  UNL1111    -0.0551
      7 C         117.4533  152.1698  145.8306 C.3     1  UNL1111    -0.0551
      8 C         122.2647  152.1762  146.9854 C.3     1  UNL1111    -0.0551
      9 C         117.1789  154.5861  147.2027 C.3     1  UNL1111    -0.0809
     10 C         122.5330  154.5933  145.6136 C.3     1  UNL1111    -0.0809
     11 C         116.2155  152.8131  145.8711 C.3     1  UNL1111    -0.0809
     12 C         123.5008  152.8227  146.9453 C.3     1  UNL1111    -0.0809
     13 C         116.0806  154.0223  146.5528 C.3     1  UNL1111    -0.0856
     14 C         123.6326  154.0324  146.2637 C.3     1  UNL1111    -0.0856
     15 H         119.2559  154.3858  147.7019 H       1  UNL1111     0.0955
     16 H         120.4567  154.3875  145.1138 H       1  UNL1111     0.0955
     17 H         117.5522  151.2205  145.3077 H       1  UNL1111     0.0955
     18 H         122.1682  151.2266  147.5082 H       1  UNL1111     0.0955
     19 H         117.0653  155.5199  147.7480 H       1  UNL1111     0.0882
     20 H         122.6443  155.5275  145.0683 H       1  UNL1111     0.0882
     21 H         115.3561  152.3666  145.3770 H       1  UNL1111     0.0882
     22 H         124.3612  152.3786  147.4396 H       1  UNL1111     0.0882
     23 H         115.1143  154.5199  146.5877 H       1  UNL1111     0.0875
     24 H         124.5976  154.5325  146.2291 H       1  UNL1111     0.0875
@<TRIPOS>BOND
     1     1     4    2
     2     2     4    1
     3     2     5   ar
     4     2     7   ar
     5     3     4    1
     6     3     6   ar
     7     3     8   ar
     8     5     9   ar
     9     6    10   ar
    10     7    11   ar
    11     8    12   ar
    12     9    13   ar
    13    10    14   ar
    14    11    13   ar
    15    12    14   ar
    16     5    15    1
    17     6    16    1
    18     7    17    1
    19     8    18    1
    20     9    19    1
    21    10    20    1
    22    11    21    1
    23    12    22    1
    24    13    23    1
    25    14    24    1
@<TRIPOS>MOLECULE
411697
 44 48 0 0 0
SMALL
GASTEIGER

@<TRIPOS>ATOM
      1 O         118.3135  152.1351  147.6600 O.2     1  UNL111     -0.5307
      2 O         118.2311  149.8410  146.0306 O.2     1  UNL111     -0.4040
      3 O         116.1415  153.8377  147.0178 O.2     1  UNL111     -0.5683
      4 N         123.0590  154.0216  146.9158 N.4     1  UNL111      0.4270
      5 C         120.6074  152.4717  147.0448 C.3     1  UNL111      0.0597
      6 C         121.7258  152.1221  146.0576 C.3     1  UNL111     -0.0136
      7 C         122.4029  153.4561  145.6367 C.3     1  UNL111     -0.0250
      8 C         119.5374  151.4092  147.3601 C.3     1  UNL111      0.1355
      9 C         121.2290  153.0699  148.3270 C.3     1  UNL111     -0.0250
     10 C         119.6934  153.4748  146.4342 C.3     1  UNL111      0.0248
     11 C         121.2236  151.2857  144.8746 C.3     1  UNL111     -0.0274
     12 C         121.4302  154.4793  144.9655 C.3     1  UNL111     -0.0224
     13 C         122.0969  154.2972  148.0517 C.3     1  UNL111     -0.0366
     14 C         120.0349  154.4582  145.5274 C.3     1  UNL111     -0.0426
     15 C         120.5126  150.0357  145.3769 C.3     1  UNL111      0.0289
     16 C         119.3082  150.4057  146.2144 C.2     1  UNL111      0.1274
     17 C         118.4001  153.2640  146.8751 C.3     1  UNL111      0.1094
     18 C         123.9723  155.1957  146.6652 C.3     1  UNL111     -0.0445
     19 C         119.0110  155.3115  145.1191 C.3     1  UNL111     -0.0571
     20 C         117.3715  154.1058  146.5005 C.3     1  UNL111      0.0931
     21 C         117.6957  155.1470  145.6171 C.3     1  UNL111     -0.0129
     22 C         115.0518  154.6187  146.5451 C.3     1  UNL111      0.0331
     23 H         123.6911  153.2835  147.2555 H       1  UNL111      0.1324
     24 H         122.4705  151.5008  146.5771 H       1  UNL111      0.0627
     25 H         123.2394  153.2509  144.9579 H       1  UNL111      0.0835
     26 H         119.8150  150.8189  148.2417 H       1  UNL111      0.1606
     27 H         121.8428  152.3013  148.8155 H       1  UNL111      0.0545
     28 H         120.4564  153.3495  149.0550 H       1  UNL111      0.0545
     29 H         122.0734  150.9937  144.2467 H       1  UNL111      0.0427
     30 H         120.5429  151.8608  144.2367 H       1  UNL111      0.0427
     31 H         121.3515  154.2101  143.9041 H       1  UNL111      0.0613
     32 H         121.8288  155.4970  145.0035 H       1  UNL111      0.0613
     33 H         121.5057  155.1797  147.7877 H       1  UNL111      0.0738
     34 H         122.7009  154.5381  148.9335 H       1  UNL111      0.0738
     35 H         121.1786  149.4130  145.9838 H       1  UNL111      0.0688
     36 H         120.1764  149.4388  144.5222 H       1  UNL111      0.0688
     37 H         123.3709  156.0783  146.4389 H       1  UNL111      0.0667
     38 H         124.6351  154.9410  145.8346 H       1  UNL111      0.0667
     39 H         124.5602  155.3577  147.5729 H       1  UNL111      0.0667
     40 H         119.2004  156.1045  144.3970 H       1  UNL111      0.0939
     41 H         116.9354  155.8419  145.2695 H       1  UNL111      0.1142
     42 H         114.1396  154.2423  147.0179 H       1  UNL111      0.1074
     43 H         114.9325  154.5178  145.4612 H       1  UNL111      0.1074
     44 H         115.1684  155.6686  146.8332 H       1  UNL111      0.1074
@<TRIPOS>UNITY_ATOM_ATTR
4 1
charge 1
@<TRIPOS>BOND
     1     1     8    1
     2     1    17    1
     3     2    16    2
     4     3    20    1
     5     3    22    1
     6     4     7    1
     7     4    13    1
     8     4    18    1
     9     5     6    1
    10     5     8    1
    11     5     9    1
    12     5    10    1
    13     6     7    1
    14     6    11    1
    15     7    12    1
    16     8    16    1
    17     9    13    1
    18    10    14   ar
    19    10    17   ar
    20    11    15    1
    21    12    14    1
    22    14    19   ar
    23    15    16    1
    24    17    20   ar
    25    19    21   ar
    26    20    21   ar
    27     4    23    1
    28     6    24    1
    29     7    25    1
    30     8    26    1
    31     9    27    1
    32     9    28    1
    33    11    29    1
    34    11    30    1
    35    12    31    1
    36    12    32    1
    37    13    33    1
    38    13    34    1
    39    15    35    1
    40    15    36    1
    41    18    37    1
    42    18    38    1
    43    18    39    1
    44    19    40    1
    45    21    41    1
    46    22    42    1
    47    22    43    1
    48    22    44    1
@<TRIPOS>MOLECULE
5288826
 41 45 0 0 0
SMALL
GASTEIGER

@<TRIPOS>ATOM
      1 O         117.8980  152.5787  147.6794 O.3     1  UNL111     -0.5439
      2 O         117.0592  150.6724  146.0578 O.3     1  UNL111     -0.4348
      3 O         116.2951  154.9452  147.1198 O.3     1  UNL111     -0.5485
      4 N         123.0252  153.1425  146.8634 N.4     1  UNL111      0.4275
      5 C         120.2421  152.3212  147.0686 C.3     1  UNL111      0.0532
      6 C         121.1643  151.7305  145.9912 C.3     1  UNL111     -0.0026
      7 C         122.1779  152.8521  145.6006 C.3     1  UNL111     -0.0206
      8 C         118.9349  151.5631  147.4082 C.3     1  UNL111      0.0902
      9 C         121.0617  152.6623  148.3316 C.3     1  UNL111     -0.0259
     10 C         119.6157  153.5685  146.5407 C.ar    1  UNL111      0.0232
     11 C         121.5072  154.1395  145.0284 C.3     1  UNL111     -0.0213
     12 C         122.2256  153.6136  148.0570 C.3     1  UNL111     -0.0364
     13 C         120.1852  154.4746  145.6625 C.ar    1  UNL111     -0.0425
     14 C         118.4530  150.5650  146.3139 C.3     1  UNL111      0.0605
     15 C         120.3966  151.1511  144.8336 C.2     1  UNL111     -0.0869
     16 C         118.3193  153.6828  146.9871 C.ar    1  UNL111      0.1050
     17 C         119.1677  150.6372  144.9951 C.2     1  UNL111     -0.0672
     18 C         124.2176  154.0288  146.6061 C.3     1  UNL111     -0.0442
     19 C         119.4261  155.5980  145.3230 C.ar    1  UNL111     -0.0573
     20 C         117.5678  154.7902  146.6731 C.ar    1  UNL111      0.0917
     21 C         118.1278  155.7640  145.8474 C.ar    1  UNL111     -0.0140
     22 H         116.7779  151.5655  146.3278 H       1  UNL111      0.2424
     23 H         116.0875  154.1811  147.6886 H       1  UNL111      0.3393
     24 H         123.4375  152.2388  147.1344 H       1  UNL111      0.1328
     25 H         121.7337  150.8918  146.4183 H       1  UNL111      0.0720
     26 H         122.8955  152.4641  144.8669 H       1  UNL111      0.0854
     27 H         119.0515  150.9988  148.3425 H       1  UNL111      0.1417
     28 H         121.4579  151.7308  148.7576 H       1  UNL111      0.0544
     29 H         120.4272  153.1076  149.1091 H       1  UNL111      0.0544
     30 H         121.3126  153.9616  143.9624 H       1  UNL111      0.0615
     31 H         122.1755  155.0031  145.0865 H       1  UNL111      0.0615
     32 H         121.8932  154.6376  147.8597 H       1  UNL111      0.0738
     33 H         122.9078  153.6325  148.9141 H       1  UNL111      0.0738
     34 H         118.6172  149.5480  146.6915 H       1  UNL111      0.1221
     35 H         120.8610  151.0998  143.8502 H       1  UNL111      0.0812
     36 H         118.6569  150.1866  144.1445 H       1  UNL111      0.0909
     37 H         123.8778  155.0551  146.4529 H       1  UNL111      0.0667
     38 H         124.7434  153.6476  145.7273 H       1  UNL111      0.0667
     39 H         124.8686  153.9706  147.4827 H       1  UNL111      0.0667
     40 H         119.8093  156.3436  144.6284 H       1  UNL111      0.0939
     41 H         117.5390  156.6374  145.5740 H       1  UNL111      0.1139
@<TRIPOS>UNITY_ATOM_ATTR
4 1
charge 1
@<TRIPOS>BOND
     1     1     8    1
     2     1    16    1
     3     2    14    1
     4     3    20    1
     5     4     7    1
     6     4    12    1
     7     4    18    1
     8     5     6    1
     9     5     8    1
    10     5     9    1
    11     5    10    1
    12     6     7    1
    13     6    15    1
    14     7    11    1
    15     8    14    1
    16     9    12    1
    17    10    13   ar
    18    10    16   ar
    19    11    13    1
    20    13    19   ar
    21    14    17    1
    22    15    17    2
    23    16    20   ar
    24    19    21   ar
    25    20    21   ar
    26     2    22    1
    27     3    23    1
    28     4    24    1
    29     6    25    1
    30     7    26    1
    31     8    27    1
    32     9    28    1
    33     9    29    1
    34    11    30    1
    35    11    31    1
    36    12    32    1
    37    12    33    1
    38    14    34    1
    39    15    35    1
    40    17    36    1
    41    18    37    1
    42    18    38    1
    43    18    39    1
    44    19    40    1
    45    21    41    1
@<TRIPOS>MOLECULE
5324289
 45 49 0 0 0
SMALL
GASTEIGER

@<TRIPOS>ATOM
      1 O         118.6728  154.4565  145.6503 O.3     1  UNL111     -0.5313
      2 O         119.8259  156.8683  147.0072 O.2     1  UNL111     -0.5764
      3 O         116.0932  153.3667  145.8931 O.3     1  UNL111     -0.5683
      4 N         122.8281  151.1633  145.9954 N.4     1  UNL111      0.4294
      5 C         120.7739  153.2579  145.9920 C.3     1  UNL111      0.0761
      6 C         121.7112  153.0509  147.1527 C.2     1  UNL111     -0.0492
      7 C         122.1027  151.6002  147.2685 C.3     1  UNL111     -0.0050
      8 C         120.1100  154.6543  145.8131 C.3     1  UNL111      0.1261
      9 C         121.4499  152.8064  144.6822 C.3     1  UNL111     -0.0195
     10 C         119.5641  152.4521  146.3038 C.ar    1  UNL111      0.0315
     11 C         120.8481  150.6775  147.5101 C.3     1  UNL111     -0.0165
     12 C         122.0147  151.3913  144.7424 C.3     1  UNL111     -0.0339
     13 C         119.5540  151.2153  146.9351 C.ar    1  UNL111     -0.0395
     14 C         118.4165  153.1637  146.0325 C.ar    1  UNL111      0.1111
     15 C         120.4378  155.6252  146.9414 C.2     1  UNL111      0.0616
     16 C         121.9877  154.0388  148.0160 C.2     1  UNL111     -0.0564
     17 C         121.3242  155.3192  147.9056 C.2     1  UNL111     -0.0212
     18 C         118.3094  150.6227  147.1393 C.ar    1  UNL111     -0.0566
     19 C         124.2216  151.7309  145.9012 C.3     1  UNL111     -0.0431
     20 C         117.1684  152.5992  146.2285 C.ar    1  UNL111      0.0935
     21 C         117.1275  151.3015  146.7636 C.ar    1  UNL111     -0.0128
     22 C         119.4154  157.4547  145.7768 C.3     1  UNL111      0.0306
     23 C         114.8041  152.8423  146.1834 C.3     1  UNL111      0.0331
     24 H         122.9598  150.1466  146.0713 H       1  UNL111      0.1349
     25 H         122.8146  151.4295  148.0850 H       1  UNL111      0.0950
     26 H         120.4634  155.1098  144.8789 H       1  UNL111      0.1600
     27 H         122.2634  153.5029  144.4382 H       1  UNL111      0.0565
     28 H         120.7430  152.8574  143.8434 H       1  UNL111      0.0565
     29 H         120.7053  150.6038  148.5967 H       1  UNL111      0.0634
     30 H         121.0296  149.6635  147.1357 H       1  UNL111      0.0634
     31 H         121.2211  150.6370  144.7345 H       1  UNL111      0.0744
     32 H         122.6621  151.1848  143.8830 H       1  UNL111      0.0744
     33 H         122.6113  153.8862  148.8939 H       1  UNL111      0.0949
     34 H         121.5212  156.0450  148.6933 H       1  UNL111      0.1116
     35 H         118.2246  149.6547  147.6301 H       1  UNL111      0.0940
     36 H         124.1657  152.8167  145.7953 H       1  UNL111      0.0670
     37 H         124.7089  151.2813  145.0320 H       1  UNL111      0.0670
     38 H         124.7625  151.4534  146.8097 H       1  UNL111      0.0670
     39 H         116.1801  150.8020  146.9490 H       1  UNL111      0.1142
     40 H         119.1345  158.4927  145.9789 H       1  UNL111      0.1069
     41 H         118.5375  156.9469  145.3693 H       1  UNL111      0.1069
     42 H         120.2347  157.4634  145.0508 H       1  UNL111      0.1069
     43 H         114.0635  153.5928  145.8906 H       1  UNL111      0.1074
     44 H         114.6848  152.6564  147.2560 H       1  UNL111      0.1074
     45 H         114.6086  151.9359  145.6012 H       1  UNL111      0.1074
@<TRIPOS>UNITY_ATOM_ATTR
4 1
charge 1
@<TRIPOS>BOND
     1     1     8    1
     2     1    14    1
     3     2    15    1
     4     2    22    1
     5     3    20    1
     6     3    23    1
     7     4     7    1
     8     4    12    1
     9     4    19    1
    10     5     6    1
    11     5     8    1
    12     5     9    1
    13     5    10    1
    14     6     7    1
    15     6    16    2
    16     7    11    1
    17     8    15    1
    18     9    12    1
    19    10    13   ar
    20    10    14   ar
    21    11    13    1
    22    13    18   ar
    23    14    20   ar
    24    15    17    2
    25    16    17    1
    26    18    21   ar
    27    20    21   ar
    28     4    24    1
    29     7    25    1
    30     8    26    1
    31     9    27    1
    32     9    28    1
    33    11    29    1
    34    11    30    1
    35    12    31    1
    36    12    32    1
    37    16    33    1
    38    17    34    1
    39    18    35    1
    40    19    36    1
    41    19    37    1
    42    19    38    1
    43    21    39    1
    44    22    40    1
    45    22    41    1
    46    22    42    1
    47    23    43    1
    48    23    44    1
    49    23    45    1
@<TRIPOS>MOLECULE
5492619
 47 51 0 0 0
SMALL
GASTEIGER

@<TRIPOS>ATOM
      1 O         118.4027  152.4247  147.6317 O.3     1  UNL111     -0.5435
      2 O         117.7408  150.9096  145.5031 O.3     1  UNL111     -0.4467
      3 O         116.6018  154.5465  147.0734 O.3     1  UNL111     -0.5684
      4 N         123.3831  153.4357  146.8579 N.4     1  UNL111      0.4275
      5 C         120.7041  152.3090  146.9709 C.3     1  UNL111      0.0534
      6 C         121.7509  151.7624  145.9961 C.3     1  UNL111     -0.0025
      7 C         122.6426  152.9713  145.5767 C.3     1  UNL111     -0.0206
      8 C         119.4470  151.4610  147.2571 C.3     1  UNL111      0.0910
      9 C         121.4178  152.7729  148.2624 C.3     1  UNL111     -0.0258
     10 C         119.9922  153.4807  146.3853 C.ar    1  UNL111      0.0235
     11 C         121.8568  154.1297  144.8852 C.3     1  UNL111     -0.0213
     12 C         122.4765  153.8442  148.0002 C.3     1  UNL111     -0.0364
     13 C         118.9880  150.5235  146.0846 C.3     1  UNL111      0.0611
     14 C         120.5017  154.3877  145.4792 C.ar    1  UNL111     -0.0425
     15 C         121.1625  150.9867  144.8569 C.2     1  UNL111     -0.0867
     16 C         118.6948  153.5295  146.8603 C.ar    1  UNL111      0.1061
     17 C         119.9435  150.4337  144.9206 C.2     1  UNL111     -0.0662
     18 C         119.6616  155.4352  145.1056 C.ar    1  UNL111     -0.0571
     19 C         124.4541  154.4638  146.6038 C.3     1  UNL111     -0.0442
     20 C         117.8480  154.5671  146.5238 C.ar    1  UNL111      0.0926
     21 C         118.3539  155.5337  145.6402 C.ar    1  UNL111     -0.0130
     22 C         116.6157  150.3674  146.1852 C.3     1  UNL111      0.0016
     23 C         115.6906  155.5506  146.6464 C.3     1  UNL111      0.0331
     24 H         123.8975  152.6086  147.1908 H       1  UNL111      0.1328
     25 H         122.3902  151.0393  146.5244 H       1  UNL111      0.0720
     26 H         123.4399  152.6293  144.9050 H       1  UNL111      0.0854
     27 H         119.6271  150.8270  148.1350 H       1  UNL111      0.1419
     28 H         121.8951  151.9051  148.7368 H       1  UNL111      0.0544
     29 H         120.7048  153.1654  148.9991 H       1  UNL111      0.0544
     30 H         121.6977  153.8424  143.8375 H       1  UNL111      0.0615
     31 H         122.4397  155.0551  144.8727 H       1  UNL111      0.0615
     32 H         122.0383  154.8161  147.7525 H       1  UNL111      0.0738
     33 H         123.1122  153.9700  148.8836 H       1  UNL111      0.0738
     34 H         118.8979  149.5026  146.4811 H       1  UNL111      0.1236
     35 H         121.7623  150.8200  143.9635 H       1  UNL111      0.0812
     36 H         119.5807  149.8595  144.0680 H       1  UNL111      0.0911
     37 H         119.9885  156.1804  144.3824 H       1  UNL111      0.0939
     38 H         123.9855  155.4258  146.3862 H       1  UNL111      0.0667
     39 H         125.0662  154.1200  145.7664 H       1  UNL111      0.0667
     40 H         125.0665  154.5347  147.5069 H       1  UNL111      0.0667
     41 H         117.7417  156.3715  145.3171 H       1  UNL111      0.1142
     42 H         115.7095  150.7784  145.7327 H       1  UNL111      0.0826
     43 H         116.6257  150.6269  147.2472 H       1  UNL111      0.0826
     44 H         116.5973  149.2792  146.0702 H       1  UNL111      0.0826
     45 H         114.7338  155.3689  147.1454 H       1  UNL111      0.1074
     46 H         115.5192  155.4969  145.5662 H       1  UNL111      0.1074
     47 H         116.0368  156.5464  146.9423 H       1  UNL111      0.1074
@<TRIPOS>UNITY_ATOM_ATTR
4 1
charge 1
@<TRIPOS>BOND
     1     1     8    1
     2     1    16    1
     3     2    13    1
     4     2    22    1
     5     3    20    1
     6     3    23    1
     7     4     7    1
     8     4    12    1
     9     4    19    1
    10     5     6    1
    11     5     8    1
    12     5     9    1
    13     5    10    1
    14     6     7    1
    15     6    15    1
    16     7    11    1
    17     8    13    1
    18     9    12    1
    19    10    14   ar
    20    10    16   ar
    21    11    14    1
    22    13    17    1
    23    14    18   ar
    24    15    17    2
    25    16    20   ar
    26    18    21   ar
    27    20    21   ar
    28     4    24    1
    29     6    25    1
    30     7    26    1
    31     8    27    1
    32     9    28    1
    33     9    29    1
    34    11    30    1
    35    11    31    1
    36    12    32    1
    37    12    33    1
    38    13    34    1
    39    15    35    1
    40    17    36    1
    41    18    37    1
    42    19    38    1
    43    19    39    1
    44    19    40    1
    45    21    41    1
    46    22    42    1
    47    22    43    1
    48    22    44    1
    49    23    45    1
    50    23    46    1
    51    23    47    1
@<TRIPOS>MOLECULE
154732859
 46 49 0 0 0
SMALL
GASTEIGER

@<TRIPOS>ATOM
      1 O         121.7588  151.6606  145.8092 O.2     1  UNL111     -0.5312
      2 O         120.7117  150.5480  148.1474 O.2     1  UNL111     -0.4040
      3 O         123.9272  153.2970  146.5953 O.2     1  UNL111     -0.5683
      4 N         116.2856  153.9953  146.8970 N.4     1  UNL111      0.4257
      5 C         119.5255  152.4057  145.2962 C.3     1  UNL111      0.0522
      6 C         118.0437  152.5162  145.7616 C.3     1  UNL111     -0.0164
      7 C         117.7921  153.7460  146.7105 C.3     1  UNL111     -0.0263
      8 C         120.3743  151.2236  145.8246 C.3     1  UNL111      0.1330
      9 C         120.3865  153.4834  145.8523 C.3     1  UNL111      0.0218
     10 C         117.5879  151.1585  146.3243 C.3     1  UNL111     -0.0279
     11 C         118.5296  155.0347  146.2405 C.3     1  UNL111     -0.0227
     12 C         119.9978  154.7463  146.2434 C.3     1  UNL111     -0.0431
     13 C         119.5895  152.4439  143.7540 C.3     1  UNL111     -0.0375
     14 C         118.4413  150.6612  147.4812 C.3     1  UNL111      0.0288
     15 C         119.9281  150.7957  147.2319 C.2     1  UNL111      0.1269
     16 C         121.6748  153.0163  146.0420 C.3     1  UNL111      0.1088
     17 C         120.9943  155.6159  146.6808 C.3     1  UNL111     -0.0571
     18 C         122.6878  153.8486  146.4801 C.3     1  UNL111      0.0931
     19 C         122.3339  155.1729  146.7784 C.3     1  UNL111     -0.0130
     20 C         115.9783  154.7029  148.1985 C.3     1  UNL111     -0.0454
     21 C         115.5829  154.6691  145.7448 C.3     1  UNL111     -0.0454
     22 C         124.9721  154.1349  147.0700 C.3     1  UNL111      0.0331
     23 H         115.8355  153.0779  146.9961 H       1  UNL111      0.1308
     24 H         117.4270  152.6845  144.8693 H       1  UNL111      0.0621
     25 H         118.1598  153.4773  147.7097 H       1  UNL111      0.0832
     26 H         120.2888  150.3400  145.1805 H       1  UNL111      0.1600
     27 H         117.6370  150.4186  145.5135 H       1  UNL111      0.0426
     28 H         116.5380  151.1864  146.6323 H       1  UNL111      0.0426
     29 H         118.3146  155.8683  146.9170 H       1  UNL111      0.0612
     30 H         118.2257  155.3244  145.2284 H       1  UNL111      0.0612
     31 H         119.0292  151.6061  143.3237 H       1  UNL111      0.0350
     32 H         120.6169  152.3805  143.3762 H       1  UNL111      0.0350
     33 H         119.1614  153.3746  143.3627 H       1  UNL111      0.0350
     34 H         118.2206  149.6057  147.6724 H       1  UNL111      0.0687
     35 H         118.2038  151.2294  148.3872 H       1  UNL111      0.0687
     36 H         120.7582  156.6363  146.9768 H       1  UNL111      0.0939
     37 H         123.0768  155.8852  147.1274 H       1  UNL111      0.1142
     38 H         116.3900  155.7136  148.1585 H       1  UNL111      0.0663
     39 H         116.4225  154.1248  149.0129 H       1  UNL111      0.0663
     40 H         114.8917  154.7307  148.3166 H       1  UNL111      0.0663
     41 H         115.9195  155.7067  145.6808 H       1  UNL111      0.0663
     42 H         114.5079  154.6292  145.9420 H       1  UNL111      0.0663
     43 H         115.8056  154.1232  144.8268 H       1  UNL111      0.0663
     44 H         125.8892  153.5392  147.1062 H       1  UNL111      0.1074
     45 H         124.7635  154.4888  148.0850 H       1  UNL111      0.1074
     46 H         125.1456  154.9735  146.3875 H       1  UNL111      0.1074
@<TRIPOS>UNITY_ATOM_ATTR
4 1
charge 1
@<TRIPOS>BOND
     1     1     8    1
     2     1    16    1
     3     2    15    2
     4     3    18    1
     5     3    22    1
     6     4     7    1
     7     4    20    1
     8     4    21    1
     9     5     6    1
    10     5     8    1
    11     5     9    1
    12     5    13    1
    13     6     7    1
    14     6    10    1
    15     7    11    1
    16     8    15    1
    17     9    12   ar
    18     9    16   ar
    19    10    14    1
    20    11    12    1
    21    12    17   ar
    22    14    15    1
    23    16    18   ar
    24    17    19   ar
    25    18    19   ar
    26     4    23    1
    27     6    24    1
    28     7    25    1
    29     8    26    1
    30    10    27    1
    31    10    28    1
    32    11    29    1
    33    11    30    1
    34    13    31    1
    35    13    32    1
    36    13    33    1
    37    14    34    1
    38    14    35    1
    39    17    36    1
    40    19    37    1
    41    20    38    1
    42    20    39    1
    43    20    40    1
    44    21    41    1
    45    21    42    1
    46    21    43    1
    47    22    44    1
    48    22    45    1
    49    22    46    1
@<TRIPOS>MOLECULE
5486617
 47 51 0 0 0
SMALL
GASTEIGER

@<TRIPOS>ATOM
      1 O         118.3256  153.9151  145.4319 O.3     1  UNL111     -0.5333
      2 O         118.1383  156.4917  146.9699 O.2     1  UNL111     -0.5783
      3 O         116.3973  151.8834  145.8164 O.3     1  UNL111     -0.5683
      4 N         123.3336  152.6004  145.8932 N.4     1  UNL111      0.4271
      5 C         120.6761  153.7572  145.9443 C.3     1  UNL111      0.0582
      6 C         121.7152  154.1025  147.0145 C.3     1  UNL111     -0.0103
      7 C         122.5892  152.8376  147.2267 C.3     1  UNL111     -0.0240
      8 C         119.4931  154.7361  145.7580 C.3     1  UNL111      0.1193
      9 C         121.3769  153.4498  144.6031 C.3     1  UNL111     -0.0250
     10 C         119.9032  152.5653  146.3842 C.ar    1  UNL111      0.0248
     11 C         121.7829  151.5730  147.6785 C.3     1  UNL111     -0.0223
     12 C         121.0933  154.6197  148.3226 C.3     1  UNL111     -0.0178
     13 C         122.4247  152.3462  144.7119 C.3     1  UNL111     -0.0365
     14 C         120.3846  151.5025  147.1241 C.ar    1  UNL111     -0.0425
     15 C         118.5805  152.6919  146.0088 C.ar    1  UNL111      0.1091
     16 C         119.2088  155.6103  146.9726 C.2     1  UNL111      0.0527
     17 C         119.9344  155.5389  148.1002 C.2     1  UNL111     -0.0436
     18 C         124.4351  151.5757  145.9820 C.3     1  UNL111     -0.0444
     19 C         119.4833  150.4758  147.3999 C.ar    1  UNL111     -0.0571
     20 C         117.6699  151.6831  146.2588 C.ar    1  UNL111      0.0932
     21 C         118.1430  150.5579  146.9522 C.ar    1  UNL111     -0.0129
     22 C         117.6919  156.9758  145.7085 C.3     1  UNL111      0.0302
     23 C         115.4291  150.8998  146.1570 C.3     1  UNL111      0.0331
     24 H         123.8245  153.4818  145.6883 H       1  UNL111      0.1324
     25 H         122.3491  154.9158  146.6300 H       1  UNL111      0.0643
     26 H         123.3793  153.0473  147.9577 H       1  UNL111      0.0838
     27 H         119.6900  155.3884  144.8986 H       1  UNL111      0.1577
     28 H         121.8649  154.3650  144.2416 H       1  UNL111      0.0545
     29 H         120.6513  153.1652  143.8299 H       1  UNL111      0.0545
     30 H         121.6922  151.6152  148.7718 H       1  UNL111      0.0613
     31 H         122.3179  150.6484  147.4443 H       1  UNL111      0.0613
     32 H         121.8682  155.1562  148.8841 H       1  UNL111      0.0507
     33 H         120.7581  153.8038  148.9717 H       1  UNL111      0.0507
     34 H         121.9801  151.3534  144.8327 H       1  UNL111      0.0738
     35 H         123.0555  152.3345  143.8163 H       1  UNL111      0.0738
     36 H         119.6395  156.1644  148.9425 H       1  UNL111      0.0992
     37 H         123.9960  150.5789  146.0565 H       1  UNL111      0.0667
     38 H         125.0475  151.8073  146.8568 H       1  UNL111      0.0667
     39 H         125.0387  151.6584  145.0740 H       1  UNL111      0.0667
     40 H         119.7872  149.6092  147.9848 H       1  UNL111      0.0939
     41 H         117.4811  149.7300  147.1932 H       1  UNL111      0.1142
     42 H         116.9520  157.7602  145.8938 H       1  UNL111      0.1069
     43 H         117.2033  156.1871  145.1304 H       1  UNL111      0.1069
     44 H         118.5184  157.4196  145.1442 H       1  UNL111      0.1069
     45 H         114.4633  151.2297  145.7626 H       1  UNL111      0.1074
     46 H         115.3303  150.8013  147.2432 H       1  UNL111      0.1074
     47 H         115.6675  149.9370  145.6934 H       1  UNL111      0.1074
@<TRIPOS>UNITY_ATOM_ATTR
4 1
charge 1
@<TRIPOS>BOND
     1     1     8    1
     2     1    15    1
     3     2    16    1
     4     2    22    1
     5     3    20    1
     6     3    23    1
     7     4     7    1
     8     4    13    1
     9     4    18    1
    10     5     6    1
    11     5     8    1
    12     5     9    1
    13     5    10    1
    14     6     7    1
    15     6    12    1
    16     7    11    1
    17     8    16    1
    18     9    13    1
    19    10    14   ar
    20    10    15   ar
    21    11    14    1
    22    12    17    1
    23    14    19   ar
    24    15    20   ar
    25    16    17    2
    26    19    21   ar
    27    20    21   ar
    28     4    24    1
    29     6    25    1
    30     7    26    1
    31     8    27    1
    32     9    28    1
    33     9    29    1
    34    11    30    1
    35    11    31    1
    36    12    32    1
    37    12    33    1
    38    13    34    1
    39    13    35    1
    40    17    36    1
    41    18    37    1
    42    18    38    1
    43    18    39    1
    44    19    40    1
    45    21    41    1
    46    22    42    1
    47    22    43    1
    48    22    44    1
    49    23    45    1
    50    23    46    1
    51    23    47    1
@<TRIPOS>MOLECULE
5493384
 49 53 0 0 0
SMALL
GASTEIGER

@<TRIPOS>ATOM
      1 O         118.1867  153.5413  145.3253 O.3     1  UNL111     -0.5453
      2 O         117.7062  156.1462  146.1855 O.3     1  UNL111     -0.4534
      3 O         116.5112  151.3449  145.8625 O.3     1  UNL111     -0.5684
      4 N         123.3650  152.9597  145.9837 N.4     1  UNL111      0.4269
      5 C         120.5647  153.6826  145.7881 C.3     1  UNL111      0.0476
      6 C         121.4491  154.2376  146.9093 C.3     1  UNL111     -0.0179
      7 C         119.2977  154.4873  145.4315 C.3     1  UNL111      0.0848
      8 C         122.5013  153.1404  147.2488 C.3     1  UNL111     -0.0256
      9 C         121.3975  153.3820  144.5250 C.3     1  UNL111     -0.0272
     10 C         119.9303  152.4393  146.3011 C.ar    1  UNL111      0.0218
     11 C         120.6582  154.7057  148.1528 C.3     1  UNL111     -0.0396
     12 C         119.0186  155.6412  146.4278 C.3     1  UNL111      0.0443
     13 C         121.8752  151.7852  147.7184 C.3     1  UNL111     -0.0225
     14 C         119.2286  155.1924  147.8752 C.3     1  UNL111     -0.0227
     15 C         122.5918  152.4714  144.7813 C.3     1  UNL111     -0.0369
     16 C         120.5161  151.5016  147.1334 C.ar    1  UNL111     -0.0430
     17 C         118.5997  152.3912  145.9467 C.ar    1  UNL111      0.1054
     18 C         124.6181  152.1530  146.2095 C.3     1  UNL111     -0.0445
     19 C         119.7392  150.3998  147.4904 C.ar    1  UNL111     -0.0571
     20 C         117.8052  151.3106  146.2875 C.ar    1  UNL111      0.0926
     21 C         118.4009  150.2953  147.0497 C.ar    1  UNL111     -0.0130
     22 C         117.4198  157.3897  146.8083 C.3     1  UNL111     -0.0003
     23 C         115.6625  150.2797  146.2682 C.3     1  UNL111      0.0331
     24 H         123.7097  153.8986  145.7405 H       1  UNL111      0.1324
     25 H         121.9741  155.1241  146.5241 H       1  UNL111      0.0619
     26 H         119.3817  154.9392  144.4344 H       1  UNL111      0.1395
     27 H         123.1930  153.5114  148.0146 H       1  UNL111      0.0835
     28 H         121.7644  154.3315  144.1121 H       1  UNL111      0.0541
     29 H         120.7763  152.9268  143.7425 H       1  UNL111      0.0541
     30 H         121.2246  155.5252  148.6152 H       1  UNL111      0.0396
     31 H         120.6112  153.9276  148.9230 H       1  UNL111      0.0396
     32 H         119.7389  156.4415  146.2083 H       1  UNL111      0.1129
     33 H         121.7487  151.8447  148.8074 H       1  UNL111      0.0613
     34 H         122.5406  150.9388  147.5268 H       1  UNL111      0.0613
     35 H         118.9969  156.0023  148.5756 H       1  UNL111      0.0483
     36 H         118.5094  154.4006  148.1198 H       1  UNL111      0.0483
     37 H         122.2996  151.4323  144.9613 H       1  UNL111      0.0738
     38 H         123.2756  152.4944  143.9255 H       1  UNL111      0.0738
     39 H         124.3536  151.1019  146.3396 H       1  UNL111      0.0667
     40 H         125.1238  152.5482  147.0939 H       1  UNL111      0.0667
     41 H         125.2562  152.2788  145.3304 H       1  UNL111      0.0667
     42 H         120.1374  149.6240  148.1424 H       1  UNL111      0.0939
     43 H         117.8348  149.4206  147.3585 H       1  UNL111      0.1142
     44 H         116.4650  157.7534  146.4185 H       1  UNL111      0.0822
     45 H         118.1924  158.1294  146.5785 H       1  UNL111      0.0822
     46 H         117.3184  157.2687  147.8897 H       1  UNL111      0.0822
     47 H         114.6637  150.4753  145.8665 H       1  UNL111      0.1074
     48 H         115.5804  150.2335  147.3592 H       1  UNL111      0.1074
     49 H         116.0062  149.3247  145.8574 H       1  UNL111      0.1074
@<TRIPOS>UNITY_ATOM_ATTR
4 1
charge 1
@<TRIPOS>BOND
     1     1     7    1
     2     1    17    1
     3     2    12    1
     4     2    22    1
     5     3    20    1
     6     3    23    1
     7     4     8    1
     8     4    15    1
     9     4    18    1
    10     5     6    1
    11     5     7    1
    12     5     9    1
    13     5    10    1
    14     6     8    1
    15     6    11    1
    16     7    12    1
    17     8    13    1
    18     9    15    1
    19    10    16   ar
    20    10    17   ar
    21    11    14    1
    22    12    14    1
    23    13    16    1
    24    16    19   ar
    25    17    20   ar
    26    19    21   ar
    27    20    21   ar
    28     4    24    1
    29     6    25    1
    30     7    26    1
    31     8    27    1
    32     9    28    1
    33     9    29    1
    34    11    30    1
    35    11    31    1
    36    12    32    1
    37    13    33    1
    38    13    34    1
    39    14    35    1
    40    14    36    1
    41    15    37    1
    42    15    38    1
    43    18    39    1
    44    18    40    1
    45    18    41    1
    46    19    42    1
    47    21    43    1
    48    22    44    1
    49    22    45    1
    50    22    46    1
    51    23    47    1
    52    23    48    1
    53    23    49    1
@<TRIPOS>MOLECULE
5459910
 42 46 0 0 0
SMALL
GASTEIGER

@<TRIPOS>ATOM
      1 O         121.6252  153.6813  147.4643 O.2     1  UNL111     -0.5286
      2 O         122.0274  156.0927  145.9300 O.2     1  UNL111     -0.3926
      3 O         123.4474  151.3695  146.5891 O.2     1  UNL111     -0.5683
      4 N         116.5887  152.7027  146.9422 N.4     1  UNL111      0.4275
      5 C         119.2895  153.7761  146.9448 C.3     1  UNL111      0.0659
      6 C         118.2220  154.3332  145.9984 C.3     1  UNL111      0.0022
      7 C         117.2883  153.1360  145.6301 C.3     1  UNL111     -0.0200
      8 C         118.6196  153.3297  148.2635 C.3     1  UNL111     -0.0236
      9 C         120.5480  154.6212  147.1752 C.3     1  UNL111      0.1435
     10 C         119.9751  152.6036  146.3282 C.3     1  UNL111      0.0265
     11 C         118.0251  151.9512  144.9305 C.3     1  UNL111     -0.0212
     12 C         117.5293  152.2788  148.0510 C.3     1  UNL111     -0.0361
     13 C         119.4078  151.6911  145.4590 C.3     1  UNL111     -0.0421
     14 C         118.8001  155.0780  144.8263 C.2     1  UNL111     -0.0705
     15 C         121.3080  152.5758  146.7084 C.3     1  UNL111      0.1101
     16 C         120.9582  155.4884  145.9749 C.2     1  UNL111      0.1527
     17 C         120.0313  155.6070  144.8176 C.2     1  UNL111     -0.0023
     18 C         115.4835  151.6957  146.7386 C.3     1  UNL111     -0.0442
     19 C         120.2154  150.6341  145.0476 C.3     1  UNL111     -0.0570
     20 C         122.1279  151.5445  146.3019 C.3     1  UNL111      0.0932
     21 C         121.5530  150.5519  145.4905 C.3     1  UNL111     -0.0129
     22 C         124.1819  152.5513  146.8969 C.3     1  UNL111      0.0331
     23 H         116.1017  153.5409  147.2898 H       1  UNL111      0.1328
     24 H         117.6176  155.0791  146.5357 H       1  UNL111      0.0728
     25 H         116.4745  153.4858  144.9827 H       1  UNL111      0.0855
     26 H         118.1783  154.2079  148.7535 H       1  UNL111      0.0548
     27 H         119.3556  152.9258  148.9707 H       1  UNL111      0.0548
     28 H         120.4261  155.2925  148.0335 H       1  UNL111      0.1634
     29 H         118.1347  152.2131  143.8697 H       1  UNL111      0.0615
     30 H         117.4336  151.0321  144.9677 H       1  UNL111      0.0615
     31 H         117.9382  151.2977  147.7902 H       1  UNL111      0.0739
     32 H         116.9260  152.1704  148.9590 H       1  UNL111      0.0739
     33 H         118.1677  155.2466  143.9551 H       1  UNL111      0.0849
     34 H         120.4141  156.1698  143.9707 H       1  UNL111      0.1146
     35 H         115.9215  150.7204  146.5166 H       1  UNL111      0.0667
     36 H         114.8508  152.0445  145.9187 H       1  UNL111      0.0667
     37 H         114.9023  151.6503  147.6636 H       1  UNL111      0.0667
     38 H         119.8434  149.8747  144.3623 H       1  UNL111      0.0939
     39 H         122.1748  149.7225  145.1542 H       1  UNL111      0.1142
     40 H         125.2463  152.3035  146.8379 H       1  UNL111      0.1074
     41 H         123.9759  152.8820  147.9190 H       1  UNL111      0.1074
     42 H         123.9894  153.3487  146.1705 H       1  UNL111      0.1074
@<TRIPOS>UNITY_ATOM_ATTR
4 1
charge 1
@<TRIPOS>BOND
     1     1     9    1
     2     1    15    1
     3     2    16    2
     4     3    20    1
     5     3    22    1
     6     4     7    1
     7     4    12    1
     8     4    18    1
     9     5     6    1
    10     5     8    1
    11     5     9    1
    12     5    10    1
    13     6     7    1
    14     6    14    1
    15     7    11    1
    16     8    12    1
    17     9    16    1
    18    10    13   ar
    19    10    15   ar
    20    11    13    1
    21    13    19   ar
    22    14    17    2
    23    15    20   ar
    24    16    17    1
    25    19    21   ar
    26    20    21   ar
    27     4    23    1
    28     6    24    1
    29     7    25    1
    30     8    26    1
    31     8    27    1
    32     9    28    1
    33    11    29    1
    34    11    30    1
    35    12    31    1
    36    12    32    1
    37    14    33    1
    38    17    34    1
    39    18    35    1
    40    18    36    1
    41    18    37    1
    42    19    38    1
    43    21    39    1
    44    22    40    1
    45    22    41    1
    46    22    42    1
