@<TRIPOS>MOLECULE
5284570
 41 45 0 0 0
SMALL
GASTEIGER

@<TRIPOS>ATOM
      1 O         117.9081  152.6727  147.6963 O.2     1  UNL111     -0.5309
      2 O         117.2169  150.5198  146.0661 O.2     1  UNL111     -0.4040
      3 O         116.2458  154.9660  146.9782 O.2     1  UNL111     -0.5485
      4 N         122.9881  153.2672  146.8977 N.4     1  UNL111      0.4270
      5 C         120.2186  152.4086  147.0604 C.3     1  UNL111      0.0597
      6 C         121.1910  151.7925  146.0488 C.3     1  UNL111     -0.0136
      7 C         122.1868  152.9099  145.6260 C.3     1  UNL111     -0.0250
      8 C         118.9107  151.6576  147.3851 C.3     1  UNL111      0.1355
      9 C         120.9948  152.8090  148.3350 C.3     1  UNL111     -0.0250
     10 C         119.5899  153.6214  146.4733 C.3     1  UNL111      0.0246
     11 C         120.4686  151.1301  144.8689 C.3     1  UNL111     -0.0274
     12 C         121.5058  154.1619  144.9830 C.3     1  UNL111     -0.0224
     13 C         122.1500  153.7702  148.0533 C.3     1  UNL111     -0.0366
     14 C         120.1613  154.4980  145.5694 C.3     1  UNL111     -0.0426
     15 C         119.4612  150.1035  145.3729 C.3     1  UNL111      0.0289
     16 C         118.4101  150.7667  146.2350 C.2     1  UNL111      0.1274
     17 C         118.2916  153.7399  146.9226 C.3     1  UNL111      0.1084
     18 C         124.1721  154.1666  146.6391 C.3     1  UNL111     -0.0445
     19 C         119.3881  155.5945  145.1804 C.3     1  UNL111     -0.0573
     20 C         117.5259  154.8175  146.5533 C.3     1  UNL111      0.0922
     21 C         118.0807  155.7615  145.6883 C.3     1  UNL111     -0.0139
     22 H         116.0081  154.1528  147.4640 H       1  UNL111      0.3393
     23 H         123.4126  152.3859  147.2184 H       1  UNL111      0.1324
     24 H         121.7563  150.9920  146.5492 H       1  UNL111      0.0627
     25 H         122.9295  152.5023  144.9298 H       1  UNL111      0.0835
     26 H         119.0309  151.0086  148.2607 H       1  UNL111      0.1606
     27 H         121.3936  151.9012  148.8071 H       1  UNL111      0.0545
     28 H         120.3330  153.2724  149.0782 H       1  UNL111      0.0545
     29 H         121.2028  150.6330  144.2240 H       1  UNL111      0.0427
     30 H         119.9537  151.8713  144.2473 H       1  UNL111      0.0427
     31 H         121.3436  153.9374  143.9206 H       1  UNL111      0.0613
     32 H         122.1567  155.0397  145.0235 H       1  UNL111      0.0613
     33 H         121.8059  154.7797  147.8075 H       1  UNL111      0.0738
     34 H         122.8097  153.8336  148.9257 H       1  UNL111      0.0738
     35 H         119.9492  149.3200  145.9623 H       1  UNL111      0.0688
     36 H         118.9665  149.6273  144.5194 H       1  UNL111      0.0688
     37 H         123.8180  155.1783  146.4318 H       1  UNL111      0.0667
     38 H         124.7319  153.7586  145.7939 H       1  UNL111      0.0667
     39 H         124.7965  154.1580  147.5367 H       1  UNL111      0.0667
     40 H         119.7661  156.3209  144.4630 H       1  UNL111      0.0939
     41 H         117.4805  156.6130  145.3729 H       1  UNL111      0.1139
@<TRIPOS>UNITY_ATOM_ATTR
4 1
charge 1
@<TRIPOS>BOND
     1     1     8    1
     2     1    17    1
     3     2    16    2
     4     3    20    1
     5     4     7    1
     6     4    13    1
     7     4    18    1
     8     5     6    1
     9     5     8    1
    10     5     9    1
    11     5    10    1
    12     6     7    1
    13     6    11    1
    14     7    12    1
    15     8    16    1
    16     9    13    1
    17    10    14   ar
    18    10    17   ar
    19    11    15    1
    20    12    14    1
    21    14    19   ar
    22    15    16    1
    23    17    20   ar
    24    19    21   ar
    25    20    21   ar
    26     3    22    1
    27     4    23    1
    28     6    24    1
    29     7    25    1
    30     8    26    1
    31     9    27    1
    32     9    28    1
    33    11    29    1
    34    11    30    1
    35    12    31    1
    36    12    32    1
    37    13    33    1
    38    13    34    1
    39    15    35    1
    40    15    36    1
    41    18    37    1
    42    18    38    1
    43    18    39    1
    44    19    40    1
    45    21    41    1
@<TRIPOS>MOLECULE
16217588
 25 29 0 0 0
SMALL
GASTEIGER

@<TRIPOS>ATOM
      1 O         117.6019  152.7029  147.0623 O.2     1  UNL111     -0.5262
      2 O         117.6747  149.6409  146.9352 O.2     1  UNL111     -0.3923
      3 O         116.0926  155.1809  146.4207 O.co2   1  UNL111     -0.7919
      4 N         123.1302  152.9718  146.6689 N.4     1  UNL111      0.4418
      5 C         119.9886  152.5721  146.8925 C.3     1  UNL111      0.1133
      6 C         120.9753  152.1183  145.7414 C.3     1  UNL111      0.0545
      7 C         122.1087  153.0942  145.5955 C.3     1  UNL111      0.0379
      8 C         118.7010  151.8211  147.1068 C.3     1  UNL111      0.2060
      9 C         120.8694  152.6299  148.0772 C.3     1  UNL111      0.0749
     10 C         119.4582  153.9119  146.5106 C.2     1  UNL111      0.0271
     11 C         120.9037  150.7603  145.3724 C.3     1  UNL111      0.0567
     12 C         121.4768  154.3961  145.4660 C.3     1  UNL111      0.0615
     13 C         122.3636  152.8453  147.9267 C.3     1  UNL111      0.0447
     14 C         120.1894  154.8927  145.8464 C.2     1  UNL111     -0.0034
     15 C         119.7069  149.9642  145.8517 C.3     1  UNL111      0.1286
     16 C         118.5818  150.4025  146.6541 C.2     1  UNL111      0.1738
     17 C         118.0842  153.9518  146.6666 C.2     1  UNL111      0.0525
     18 C         124.1122  154.0938  146.6690 C.3     1  UNL111     -0.0323
     19 C         119.5290  156.0204  145.4288 C.2     1  UNL111     -0.0116
     20 C         117.3514  155.0698  146.2922 C.2     1  UNL111     -0.0509
     21 C         118.1454  156.0983  145.7031 C.2     1  UNL111     -0.0253
     22 H         123.6387  152.0877  146.5298 H       1  UNL111      0.1524
     23 H         123.6155  155.0326  146.9336 H       1  UNL111      0.0693
     24 H         124.5720  154.1533  145.6778 H       1  UNL111      0.0693
     25 H         124.8809  153.8598  147.4118 H       1  UNL111      0.0693
@<TRIPOS>UNITY_ATOM_ATTR
3 1
charge -1
4 1
charge 1
@<TRIPOS>BOND
     1     1     8    1
     2     1    17    1
     3     2    16    2
     4     3    20    1
     5     4     7    1
     6     4    13    1
     7     4    18    1
     8     5     6    1
     9     5     8    1
    10     5     9    1
    11     5    10    1
    12     6     7    1
    13     6    11    1
    14     7    12    1
    15     8    16    1
    16     9    13    1
    17    10    14    2
    18    10    17    1
    19    11    15    1
    20    12    14    1
    21    14    19    1
    22    15    16    1
    23    17    20    2
    24    19    21    2
    25    20    21    1
    26     4    22    1
    27    18    23    1
    28    18    24    1
    29    18    25    1
@<TRIPOS>MOLECULE
10479418
 60 65 0 0 0
SMALL
GASTEIGER

@<TRIPOS>ATOM
      1 O         120.4290  150.9952  147.0441 O.2     1  UNL111     -0.5303
      2 O         122.5031  149.0456  147.2645 O.2     1  UNL111     -0.4040
      3 O         118.3451  151.1139  144.9837 O.2     1  UNL111     -0.5162
      4 O         118.1769  153.3603  145.8834 O.3     1  UNL111     -0.3726
      5 O         115.6478  150.6776  145.7245 O.3     1  UNL111     -0.4215
      6 O         114.4903  152.5116  147.5576 O.3     1  UNL111     -0.4308
      7 O         115.2388  155.2352  147.1352 O.3     1  UNL111     -0.4313
      8 O         118.8648  156.3737  145.9319 O.co2   1  UNL111     -0.5544
      9 O         118.5998  155.4622  147.9877 O.co2   1  UNL111     -0.5544
     10 N         122.9164  155.4423  146.7165 N.4     1  UNL111      0.4270
     11 C         122.1284  152.6790  147.0984 C.3     1  UNL111      0.0597
     12 C         123.6032  153.0658  147.0073 C.3     1  UNL111     -0.0136
     13 C         123.6901  154.2926  146.0472 C.3     1  UNL111     -0.0250
     14 C         121.7071  151.3168  147.6675 C.3     1  UNL111      0.1355
     15 C         121.3618  153.8209  147.8001 C.3     1  UNL111     -0.0250
     16 C         121.5812  152.4604  145.7294 C.3     1  UNL111      0.0252
     17 C         124.4807  151.8754  146.5988 C.3     1  UNL111     -0.0274
     18 C         123.1803  153.9879  144.6021 C.3     1  UNL111     -0.0224
     19 C         121.4562  155.1368  147.0407 C.3     1  UNL111     -0.0366
     20 C         121.9542  153.1205  144.5704 C.3     1  UNL111     -0.0425
     21 C         124.2214  150.6825  147.5143 C.3     1  UNL111      0.0289
     22 C         120.5148  151.5936  145.8096 C.3     1  UNL111      0.1127
     23 C         122.7750  150.2349  147.4257 C.2     1  UNL111      0.1275
     24 C         122.9792  156.7609  145.9888 C.3     1  UNL111     -0.0445
     25 C         121.1535  152.9235  143.4456 C.3     1  UNL111     -0.0567
     26 C         119.6224  151.5511  144.7644 C.3     1  UNL111      0.1111
     27 C         119.9668  152.1705  143.5532 C.3     1  UNL111     -0.0096
     28 C         117.4881  152.2601  145.2914 C.3     1  UNL111      0.1502
     29 C         116.4126  151.7697  146.2687 C.3     1  UNL111      0.0995
     30 C         115.4638  152.9249  146.5797 C.3     1  UNL111      0.0797
     31 C         116.2042  154.1731  147.0850 C.3     1  UNL111      0.0796
     32 C         117.3572  154.5232  146.1448 C.3     1  UNL111      0.1102
     33 C         118.3045  155.5886  146.7611 C.2     1  UNL111      0.0700
     34 H         116.3104  150.0103  145.4563 H       1  UNL111      0.2455
     35 H         114.1840  151.6360  147.2473 H       1  UNL111      0.2420
     36 H         114.5346  154.9026  147.7249 H       1  UNL111      0.2419
     37 H         123.3492  155.6200  147.6293 H       1  UNL111      0.1324
     38 H         123.9519  153.3783  148.0028 H       1  UNL111      0.0627
     39 H         124.7269  154.6458  145.9944 H       1  UNL111      0.0835
     40 H         121.5552  151.3673  148.7527 H       1  UNL111      0.1606
     41 H         121.7643  153.9565  148.8129 H       1  UNL111      0.0545
     42 H         120.3056  153.5611  147.9320 H       1  UNL111      0.0545
     43 H         125.5367  152.1623  146.6612 H       1  UNL111      0.0427
     44 H         124.2956  151.5784  145.5605 H       1  UNL111      0.0427
     45 H         123.9735  153.4472  144.0699 H       1  UNL111      0.0613
     46 H         123.0027  154.9094  144.0404 H       1  UNL111      0.0613
     47 H         120.9251  155.1067  146.0896 H       1  UNL111      0.0738
     48 H         121.0980  155.9689  147.6536 H       1  UNL111      0.0738
     49 H         124.4445  150.9257  148.5589 H       1  UNL111      0.0688
     50 H         124.8657  149.8479  147.2174 H       1  UNL111      0.0688
     51 H         122.3573  156.7139  145.0920 H       1  UNL111      0.0667
     52 H         124.0242  156.9559  145.7353 H       1  UNL111      0.0667
     53 H         122.6130  157.5364  146.6674 H       1  UNL111      0.0667
     54 H         121.3829  153.4156  142.5034 H       1  UNL111      0.0940
     55 H         119.2789  152.1299  142.7127 H       1  UNL111      0.1146
     56 H         117.0358  152.5697  144.3398 H       1  UNL111      0.1975
     57 H         116.8688  151.3988  147.1947 H       1  UNL111      0.1391
     58 H         114.8788  153.1776  145.6854 H       1  UNL111      0.1254
     59 H         116.5518  153.9962  148.1096 H       1  UNL111      0.1249
     60 H         116.9781  154.9116  145.1908 H       1  UNL111      0.1368
@<TRIPOS>UNITY_ATOM_ATTR
8 1
charge -1
10 1
charge 1
@<TRIPOS>BOND
     1     1    14    1
     2     1    22    1
     3     2    23    2
     4     3    26    1
     5     3    28    1
     6     4    28    1
     7     4    32    1
     8     5    29    1
     9     6    30    1
    10     7    31    1
    11     8    33   ar
    12     9    33   ar
    13    10    13    1
    14    10    19    1
    15    10    24    1
    16    11    12    1
    17    11    14    1
    18    11    15    1
    19    11    16    1
    20    12    13    1
    21    12    17    1
    22    13    18    1
    23    14    23    1
    24    15    19    1
    25    16    20   ar
    26    16    22   ar
    27    17    21    1
    28    18    20    1
    29    20    25   ar
    30    21    23    1
    31    22    26   ar
    32    25    27   ar
    33    26    27   ar
    34    28    29    1
    35    29    30    1
    36    30    31    1
    37    31    32    1
    38    32    33    1
    39     5    34    1
    40     6    35    1
    41     7    36    1
    42    10    37    1
    43    12    38    1
    44    13    39    1
    45    14    40    1
    46    15    41    1
    47    15    42    1
    48    17    43    1
    49    17    44    1
    50    18    45    1
    51    18    46    1
    52    19    47    1
    53    19    48    1
    54    21    49    1
    55    21    50    1
    56    24    51    1
    57    24    52    1
    58    24    53    1
    59    25    54    1
    60    27    55    1
    61    28    56    1
    62    29    57    1
    63    30    58    1
    64    31    59    1
    65    32    60    1
@<TRIPOS>MOLECULE
21128865
 41 45 0 0 0
SMALL
GASTEIGER

@<TRIPOS>ATOM
      1 O         121.9189  153.6359  147.7299 O.2     1  UNL1111    -0.5309
      2 O         116.1129  153.8178  147.1164 O.co2   1  UNL1111    -0.7568
      3 O         122.5139  155.8294  146.1242 O.2     1  UNL1111    -0.4040
      4 O         123.7559  151.4589  147.1058 O.2     1  UNL1111    -0.5485
      5 N         116.8569  152.7102  146.7477 N.3     1  UNL1111     0.4018
      6 C         119.6134  153.7311  147.0097 C.3     1  UNL1111     0.0593
      7 C         118.6536  154.2691  145.9458 C.3     1  UNL1111    -0.0164
      8 C         117.7337  153.0800  145.5287 C.3     1  UNL1111    -0.0435
      9 C         118.8099  153.3002  148.2575 C.3     1  UNL1111    -0.0278
     10 C         120.8495  154.5731  147.3744 C.3     1  UNL1111     0.1354
     11 C         120.3473  152.5572  146.4663 C.3     1  UNL1111     0.0246
     12 C         119.3782  154.9475  144.7786 C.3     1  UNL1111    -0.0276
     13 C         117.7098  152.2872  147.9277 C.3     1  UNL1111    -0.0551
     14 C         118.5294  151.8838  144.9112 C.3     1  UNL1111    -0.0252
     15 C         119.8726  151.6385  145.5488 C.3     1  UNL1111    -0.0428
     16 C         120.2850  156.0527  145.3048 C.3     1  UNL1111     0.0289
     17 C         121.3349  155.4861  146.2347 C.2     1  UNL1111     0.1274
     18 C         121.6323  152.5336  146.9621 C.3     1  UNL1111     0.1084
     19 C         115.8704  151.6223  146.4223 C.3     1  UNL1111    -0.0630
     20 C         120.7331  150.5949  145.1984 C.3     1  UNL1111    -0.0573
     21 C         122.4838  151.5081  146.6311 C.3     1  UNL1111     0.0922
     22 C         122.0293  150.5210  145.7556 C.3     1  UNL1111    -0.0139
     23 H         123.8875  152.2841  147.6119 H       1  UNL1111     0.3393
     24 H         118.0416  155.0559  146.4080 H       1  UNL1111     0.0625
     25 H         117.0015  153.4291  144.7882 H       1  UNL1111     0.0802
     26 H         118.3531  154.1911  148.7079 H       1  UNL1111     0.0543
     27 H         119.4627  152.8677  149.0266 H       1  UNL1111     0.0543
     28 H         120.6543  155.2189  148.2386 H       1  UNL1111     0.1606
     29 H         118.6411  155.3777  144.0904 H       1  UNL1111     0.0427
     30 H         119.9721  154.2319  144.1995 H       1  UNL1111     0.0427
     31 H         118.1220  151.3017  147.6890 H       1  UNL1111     0.0705
     32 H         117.0257  152.1743  148.7772 H       1  UNL1111     0.0705
     33 H         118.7176  152.1237  143.8564 H       1  UNL1111     0.0611
     34 H         117.9507  150.9576  144.9218 H       1  UNL1111     0.0611
     35 H         119.7154  156.8136  145.8490 H       1  UNL1111     0.0688
     36 H         120.7879  156.5432  144.4644 H       1  UNL1111     0.0688
     37 H         115.3402  151.9158  145.5128 H       1  UNL1111     0.0633
     38 H         115.1748  151.5505  147.2640 H       1  UNL1111     0.0633
     39 H         116.4015  150.6782  146.2956 H       1  UNL1111     0.0633
     40 H         120.4257  149.8417  144.4761 H       1  UNL1111     0.0939
     41 H         122.6956  149.7099  145.4721 H       1  UNL1111     0.1139
@<TRIPOS>UNITY_ATOM_ATTR
2 1
charge -1
5 1
charge 1
@<TRIPOS>BOND
     1     1    10    1
     2     1    18    1
     3     2     5    1
     4     3    17    2
     5     4    21    1
     6     5     8    1
     7     5    13    1
     8     5    19    1
     9     6     7    1
    10     6     9    1
    11     6    10    1
    12     6    11    1
    13     7     8    1
    14     7    12    1
    15     8    14    1
    16     9    13    1
    17    10    17    1
    18    11    15   ar
    19    11    18   ar
    20    12    16    1
    21    14    15    1
    22    15    20   ar
    23    16    17    1
    24    18    21   ar
    25    20    22   ar
    26    21    22   ar
    27     4    23    1
    28     7    24    1
    29     8    25    1
    30     9    26    1
    31     9    27    1
    32    10    28    1
    33    12    29    1
    34    12    30    1
    35    13    31    1
    36    13    32    1
    37    14    33    1
    38    14    34    1
    39    16    35    1
    40    16    36    1
    41    19    37    1
    42    19    38    1
    43    19    39    1
    44    20    40    1
    45    22    41    1
@<TRIPOS>MOLECULE
6426024
 49 53 0 0 0
SMALL
GASTEIGER

@<TRIPOS>ATOM
      1 F         115.4262  152.4654  148.3830 F       1  UNL111     -0.1776
      2 F         115.6217  151.4979  146.4419 F       1  UNL111     -0.1776
      3 F         115.0744  153.9593  145.1631 F       1  UNL111     -0.1616
      4 F         114.8513  154.9187  147.1028 F       1  UNL111     -0.1616
      5 F         113.5073  153.3065  146.5264 F       1  UNL111     -0.1616
      6 O         119.9558  151.7872  147.1689 O.2     1  UNL111     -0.5296
      7 O         120.8155  149.4397  145.9227 O.2     1  UNL111     -0.4040
      8 O         117.6639  152.9151  145.6978 O.3     1  UNL111     -0.4286
      9 O         117.6577  154.0493  147.7362 O.2     1  UNL111     -0.2870
     10 N         124.1694  154.7661  147.2483 N.4     1  UNL111      0.4270
     11 C         122.2014  152.6404  147.0655 C.3     1  UNL111      0.0598
     12 C         123.5960  152.4928  146.4486 C.3     1  UNL111     -0.0136
     13 C         124.0399  153.9050  145.9718 C.3     1  UNL111     -0.0250
     14 C         121.3495  151.3764  147.2954 C.3     1  UNL111      0.1356
     15 C         122.2975  153.5159  148.3353 C.3     1  UNL111     -0.0250
     16 C         121.2873  153.2965  146.0920 C.3     1  UNL111      0.0259
     17 C         123.6424  151.4255  145.3475 C.3     1  UNL111     -0.0274
     18 C         123.0837  154.5487  144.9152 C.3     1  UNL111     -0.0224
     19 C         122.8987  154.8940  148.0629 C.3     1  UNL111     -0.0366
     20 C         121.6282  154.2321  145.1319 C.3     1  UNL111     -0.0424
     21 C         123.1075  150.0980  145.8717 C.3     1  UNL111      0.0289
     22 C         121.6645  150.2448  146.3009 C.2     1  UNL111      0.1275
     23 C         120.0070  152.8130  146.2581 C.3     1  UNL111      0.1175
     24 C         124.8111  156.1116  147.0139 C.3     1  UNL111     -0.0445
     25 C         120.5880  154.7478  144.3537 C.3     1  UNL111     -0.0561
     26 C         118.9700  153.3539  145.5342 C.3     1  UNL111      0.1384
     27 C         119.2587  154.3199  144.5639 C.3     1  UNL111     -0.0047
     28 C         117.1184  153.3004  146.9243 C.2     1  UNL111      0.3820
     29 C         115.7432  152.7039  147.0748 C.3     1  UNL111      0.4458
     30 C         114.7961  153.7218  146.4702 C.3     1  UNL111      0.4484
     31 H         124.8415  154.2724  147.8519 H       1  UNL111      0.1324
     32 H         124.2911  152.1538  147.2312 H       1  UNL111      0.0627
     33 H         125.0553  153.8563  145.5604 H       1  UNL111      0.0835
     34 H         121.5018  150.9684  148.3016 H       1  UNL111      0.1606
     35 H         122.9167  152.9962  149.0788 H       1  UNL111      0.0545
     36 H         121.3141  153.6545  148.8032 H       1  UNL111      0.0545
     37 H         124.6773  151.2937  145.0105 H       1  UNL111      0.0427
     38 H         123.0613  151.7308  144.4699 H       1  UNL111      0.0427
     39 H         123.3566  154.1415  143.9328 H       1  UNL111      0.0613
     40 H         123.2219  155.6319  144.8561 H       1  UNL111      0.0613
     41 H         122.2132  155.5515  147.5191 H       1  UNL111      0.0738
     42 H         123.1692  155.3816  149.0059 H       1  UNL111      0.0738
     43 H         123.6902  149.7396  146.7268 H       1  UNL111      0.0688
     44 H         123.1650  149.3416  145.0816 H       1  UNL111      0.0688
     45 H         124.0998  156.7662  146.5061 H       1  UNL111      0.0667
     46 H         125.7120  155.9602  146.4144 H       1  UNL111      0.0667
     47 H         125.0793  156.5252  147.9900 H       1  UNL111      0.0667
     48 H         120.7870  155.4730  143.5660 H       1  UNL111      0.0940
     49 H         118.4580  154.7299  143.9514 H       1  UNL111      0.1154
@<TRIPOS>UNITY_ATOM_ATTR
10 1
charge 1
@<TRIPOS>BOND
     1     1    29    1
     2     2    29    1
     3     3    30    1
     4     4    30    1
     5     5    30    1
     6     6    14    1
     7     6    23    1
     8     7    22    2
     9     8    26    1
    10     8    28    1
    11     9    28    2
    12    10    13    1
    13    10    19    1
    14    10    24    1
    15    11    12    1
    16    11    14    1
    17    11    15    1
    18    11    16    1
    19    12    13    1
    20    12    17    1
    21    13    18    1
    22    14    22    1
    23    15    19    1
    24    16    20   ar
    25    16    23   ar
    26    17    21    1
    27    18    20    1
    28    20    25   ar
    29    21    22    1
    30    23    26   ar
    31    25    27   ar
    32    26    27   ar
    33    28    29    1
    34    29    30    1
    35    10    31    1
    36    12    32    1
    37    13    33    1
    38    14    34    1
    39    15    35    1
    40    15    36    1
    41    17    37    1
    42    17    38    1
    43    18    39    1
    44    18    40    1
    45    19    41    1
    46    19    42    1
    47    21    43    1
    48    21    44    1
    49    24    45    1
    50    24    46    1
    51    24    47    1
    52    25    48    1
    53    27    49    1
@<TRIPOS>MOLECULE
86141220
 46 50 0 0 0
SMALL
GASTEIGER

@<TRIPOS>ATOM
      1 F         124.3429  152.0055  148.1791 F       1  UNL111     -0.1516
      2 F         123.1399  151.2679  146.5271 F       1  UNL111     -0.1516
      3 F         122.2057  152.3985  148.1359 F       1  UNL111     -0.1516
      4 O         120.5157  154.4975  147.1654 O.2     1  UNL111     -0.5296
      5 O         119.3401  156.8634  146.2507 O.2     1  UNL111     -0.4040
      6 O         122.8118  153.8425  145.4254 O.3     1  UNL111     -0.4225
      7 O         124.4591  154.4569  146.8787 O.2     1  UNL111     -0.2754
      8 N         116.6376  151.0890  147.1026 N.4     1  UNL111      0.4270
      9 C         118.3669  153.4212  147.0748 C.3     1  UNL111      0.0598
     10 C         116.9296  153.4842  146.5468 C.3     1  UNL111     -0.0136
     11 C         116.6039  152.0944  145.9300 C.3     1  UNL111     -0.0250
     12 C         119.0965  154.7380  147.4095 C.3     1  UNL111      0.1356
     13 C         118.4351  152.4056  148.2375 C.3     1  UNL111     -0.0250
     14 C         119.2841  152.9807  145.9885 C.3     1  UNL111      0.0259
     15 C         116.7071  154.6559  145.5822 C.3     1  UNL111     -0.0274
     16 C         117.5572  151.6779  144.7625 C.3     1  UNL111     -0.0224
     17 C         117.9589  151.0094  147.8373 C.3     1  UNL111     -0.0366
     18 C         118.9826  152.1279  144.9423 C.3     1  UNL111     -0.0424
     19 C         117.1305  155.9667  146.2344 C.3     1  UNL111      0.0289
     20 C         118.6041  155.9328  146.5728 C.2     1  UNL111      0.1275
     21 C         120.5131  153.5869  146.1403 C.3     1  UNL111      0.1177
     22 C         116.1219  149.7164  146.7441 C.3     1  UNL111     -0.0445
     23 C         120.0176  151.8283  144.0517 C.3     1  UNL111     -0.0561
     24 C         121.5495  153.2566  145.3003 C.3     1  UNL111      0.1402
     25 C         121.3025  152.3835  144.2362 C.3     1  UNL111     -0.0045
     26 C         123.5856  153.6438  146.5769 C.2     1  UNL111      0.4018
     27 C         123.3199  152.3488  147.3446 C.3     1  UNL111      0.4689
     28 H         115.9542  151.4378  147.7893 H       1  UNL111      0.1324
     29 H         116.2518  153.6565  147.3963 H       1  UNL111      0.0627
     30 H         115.5664  152.0788  145.5749 H       1  UNL111      0.0835
     31 H         118.9669  155.0111  148.4634 H       1  UNL111      0.1606
     32 H         117.8129  152.7715  149.0651 H       1  UNL111      0.0545
     33 H         119.4536  152.3216  148.6381 H       1  UNL111      0.0545
     34 H         115.6461  154.7097  145.3118 H       1  UNL111      0.0427
     35 H         117.2641  154.5168  144.6486 H       1  UNL111      0.0427
     36 H         117.1843  152.1564  143.8474 H       1  UNL111      0.0613
     37 H         117.5297  150.5988  144.5869 H       1  UNL111      0.0613
     38 H         118.6746  150.4925  147.1904 H       1  UNL111      0.0738
     39 H         117.7945  150.3957  148.7299 H       1  UNL111      0.0738
     40 H         116.5664  156.1593  147.1530 H       1  UNL111      0.0688
     41 H         116.9463  156.7966  145.5435 H       1  UNL111      0.0688
     42 H         116.8650  149.2016  146.1316 H       1  UNL111      0.0667
     43 H         115.1770  149.8360  146.2085 H       1  UNL111      0.0667
     44 H         115.9542  149.1716  147.6772 H       1  UNL111      0.0667
     45 H         119.8442  151.1827  143.1916 H       1  UNL111      0.0940
     46 H         122.0974  152.1490  143.5303 H       1  UNL111      0.1154
@<TRIPOS>UNITY_ATOM_ATTR
8 1
charge 1
@<TRIPOS>BOND
     1     1    27    1
     2     2    27    1
     3     3    27    1
     4     4    12    1
     5     4    21    1
     6     5    20    2
     7     6    24    1
     8     6    26    1
     9     7    26    2
    10     8    11    1
    11     8    17    1
    12     8    22    1
    13     9    10    1
    14     9    12    1
    15     9    13    1
    16     9    14    1
    17    10    11    1
    18    10    15    1
    19    11    16    1
    20    12    20    1
    21    13    17    1
    22    14    18   ar
    23    14    21   ar
    24    15    19    1
    25    16    18    1
    26    18    23   ar
    27    19    20    1
    28    21    24   ar
    29    23    25   ar
    30    24    25   ar
    31    26    27    1
    32     8    28    1
    33    10    29    1
    34    11    30    1
    35    12    31    1
    36    13    32    1
    37    13    33    1
    38    15    34    1
    39    15    35    1
    40    16    36    1
    41    16    37    1
    42    17    38    1
    43    17    39    1
    44    19    40    1
    45    19    41    1
    46    22    42    1
    47    22    43    1
    48    22    44    1
    49    23    45    1
    50    25    46    1
@<TRIPOS>MOLECULE
91753907
 57 61 0 0 0
SMALL
GASTEIGER

@<TRIPOS>ATOM
      1 O         120.2362  154.2085  146.5818 O.2     1  UNL111     -0.5314
      2 O         117.7686  155.4649  145.5335 O.3     1  UNL111     -0.4689
      3 O         122.9194  154.5023  145.4167 O.3     1  UNL111     -0.4562
      4 O         116.4274  155.3047  147.4146 O.2     1  UNL111     -0.3371
      5 O         123.4514  154.0616  147.6516 O.2     1  UNL111     -0.3367
      6 N         118.7360  149.3122  147.5671 N.4     1  UNL111      0.4271
      7 C         119.0828  152.0921  146.8350 C.3     1  UNL111      0.0592
      8 C         118.0111  151.2240  146.1678 C.3     1  UNL111     -0.0101
      9 C         118.5735  149.7786  146.1030 C.3     1  UNL111     -0.0240
     10 C         118.9025  153.6247  146.7651 C.3     1  UNL111      0.1263
     11 C         119.3318  151.6215  148.2839 C.3     1  UNL111     -0.0250
     12 C         120.3405  151.9850  146.0505 C.3     1  UNL111      0.0259
     13 C         119.9111  149.6507  145.2978 C.3     1  UNL111     -0.0222
     14 C         117.5678  151.7557  144.7903 C.3     1  UNL111     -0.0169
     15 C         119.7009  150.1456  148.3813 C.3     1  UNL111     -0.0365
     16 C         120.8042  150.8612  145.3863 C.3     1  UNL111     -0.0424
     17 C         120.9800  153.2040  146.0166 C.3     1  UNL111      0.1168
     18 C         117.9858  154.0776  145.6435 C.2     1  UNL111      0.0931
     19 C         117.4084  153.2455  144.7615 C.2     1  UNL111     -0.0360
     20 C         119.0111  147.8383  147.7139 C.3     1  UNL111     -0.0444
     21 C         122.0387  150.9704  144.7414 C.3     1  UNL111     -0.0561
     22 C         122.2197  153.3049  145.4275 C.3     1  UNL111      0.1325
     23 C         122.7539  152.1860  144.7769 C.3     1  UNL111     -0.0053
     24 C         116.9500  155.9627  146.5223 C.2     1  UNL111      0.2268
     25 C         123.4711  154.7875  146.6647 C.2     1  UNL111      0.2291
     26 C         116.7996  157.4532  146.3275 C.3     1  UNL111      0.0593
     27 C         124.1289  156.1466  146.5894 C.3     1  UNL111      0.0596
     28 C         115.8725  158.0713  147.3592 C.3     1  UNL111     -0.0378
     29 C         124.7611  156.5469  147.9107 C.3     1  UNL111     -0.0378
     30 H         117.8136  149.4433  148.0058 H       1  UNL111      0.1324
     31 H         117.1147  151.2307  146.8063 H       1  UNL111      0.0644
     32 H         117.8228  149.1046  145.6733 H       1  UNL111      0.0838
     33 H         118.5206  153.9998  147.7208 H       1  UNL111      0.1588
     34 H         118.4217  151.7970  148.8733 H       1  UNL111      0.0545
     35 H         120.1246  152.2103  148.7634 H       1  UNL111      0.0545
     36 H         119.6460  149.5256  144.2398 H       1  UNL111      0.0613
     37 H         120.4728  148.7583  145.5879 H       1  UNL111      0.0613
     38 H         116.6065  151.2922  144.5362 H       1  UNL111      0.0508
     39 H         118.2633  151.4724  143.9931 H       1  UNL111      0.0508
     40 H         120.7143  149.9390  148.0235 H       1  UNL111      0.0738
     41 H         119.6253  149.8045  149.4197 H       1  UNL111      0.0738
     42 H         116.7963  153.6625  143.9635 H       1  UNL111      0.1003
     43 H         120.0366  147.6295  147.4026 H       1  UNL111      0.0667
     44 H         118.2902  147.2934  147.0995 H       1  UNL111      0.0667
     45 H         118.8727  147.5781  148.7669 H       1  UNL111      0.0667
     46 H         122.4573  150.1301  144.1902 H       1  UNL111      0.0940
     47 H         123.7173  152.2604  144.2774 H       1  UNL111      0.1154
     48 H         116.3966  157.6332  145.3253 H       1  UNL111      0.0846
     49 H         117.7898  157.9140  146.4050 H       1  UNL111      0.0846
     50 H         123.3683  156.8844  146.3131 H       1  UNL111      0.0846
     51 H         124.8999  156.1161  145.8124 H       1  UNL111      0.0846
     52 H         114.8721  157.6294  147.3035 H       1  UNL111      0.0335
     53 H         115.7806  159.1489  147.1922 H       1  UNL111      0.0335
     54 H         116.2522  157.9131  148.3741 H       1  UNL111      0.0335
     55 H         124.0122  156.5873  148.7087 H       1  UNL111      0.0335
     56 H         125.2264  157.5338  147.8274 H       1  UNL111      0.0335
     57 H         125.5317  155.8292  148.2112 H       1  UNL111      0.0335
@<TRIPOS>UNITY_ATOM_ATTR
6 1
charge 1
@<TRIPOS>BOND
     1     1    10    1
     2     1    17    1
     3     2    18    1
     4     2    24    1
     5     3    22    1
     6     3    25    1
     7     4    24    2
     8     5    25    2
     9     6     9    1
    10     6    15    1
    11     6    20    1
    12     7     8    1
    13     7    10    1
    14     7    11    1
    15     7    12    1
    16     8     9    1
    17     8    14    1
    18     9    13    1
    19    10    18    1
    20    11    15    1
    21    12    16   ar
    22    12    17   ar
    23    13    16    1
    24    14    19    1
    25    16    21   ar
    26    17    22   ar
    27    18    19    2
    28    21    23   ar
    29    22    23   ar
    30    24    26    1
    31    25    27    1
    32    26    28    1
    33    27    29    1
    34     6    30    1
    35     8    31    1
    36     9    32    1
    37    10    33    1
    38    11    34    1
    39    11    35    1
    40    13    36    1
    41    13    37    1
    42    14    38    1
    43    14    39    1
    44    15    40    1
    45    15    41    1
    46    19    42    1
    47    20    43    1
    48    20    44    1
    49    20    45    1
    50    21    46    1
    51    23    47    1
    52    26    48    1
    53    26    49    1
    54    27    50    1
    55    27    51    1
    56    28    52    1
    57    28    53    1
    58    28    54    1
    59    29    55    1
    60    29    56    1
    61    29    57    1
@<TRIPOS>MOLECULE
131769954
 43 47 0 0 0
SMALL
GASTEIGER

@<TRIPOS>ATOM
      1 O         118.1074  154.2854  147.5467 O.3     1  UNL111     -0.5457
      2 O         120.8172  156.5815  146.5806 O.3     1  UNL111     -0.4416
      3 O         115.6834  152.7764  147.0252 O.3     1  UNL111     -0.5485
      4 N         122.6337  151.6873  146.7693 N.4     1  UNL111      0.4269
      5 C         120.3604  153.5059  147.0171 C.3     1  UNL111      0.0474
      6 C         121.3607  153.6629  145.8687 C.3     1  UNL111     -0.0179
      7 C         119.4936  154.7329  147.3805 C.3     1  UNL111      0.0840
      8 C         121.8980  152.2448  145.5324 C.3     1  UNL111     -0.0256
      9 C         121.0557  152.9341  148.2694 C.3     1  UNL111     -0.0273
     10 C         119.2853  152.5911  146.5516 C.ar    1  UNL111      0.0216
     11 C         120.7889  154.3870  144.6275 C.3     1  UNL111     -0.0398
     12 C         119.5973  155.8687  146.3463 C.3     1  UNL111      0.0437
     13 C         120.7864  151.2287  145.0975 C.3     1  UNL111     -0.0225
     14 C         119.6260  155.3503  144.9107 C.3     1  UNL111     -0.0235
     15 C         121.7835  151.6206  148.0164 C.3     1  UNL111     -0.0369
     16 C         119.4402  151.4894  145.7239 C.ar    1  UNL111     -0.0430
     17 C         118.0527  153.0576  146.9442 C.ar    1  UNL111      0.1044
     18 C         123.9774  152.3294  147.0125 C.3     1  UNL111     -0.0445
     19 C         118.2899  150.7596  145.4121 C.ar    1  UNL111     -0.0573
     20 C         116.9141  152.3482  146.6422 C.ar    1  UNL111      0.0916
     21 C         117.0319  151.1786  145.8917 C.ar    1  UNL111     -0.0140
     22 H         120.7356  157.4420  146.1264 H       1  UNL111      0.2393
     23 H         115.8118  153.6098  147.5159 H       1  UNL111      0.3393
     24 H         122.8617  150.7094  146.5434 H       1  UNL111      0.1324
     25 H         122.1912  154.2878  146.2215 H       1  UNL111      0.0619
     26 H         119.8005  155.1375  148.3541 H       1  UNL111      0.1393
     27 H         122.6562  152.2883  144.7415 H       1  UNL111      0.0835
     28 H         120.3322  152.7748  149.0800 H       1  UNL111      0.0541
     29 H         121.7745  153.6740  148.6455 H       1  UNL111      0.0541
     30 H         120.4665  153.6791  143.8555 H       1  UNL111      0.0396
     31 H         121.6097  154.9511  144.1645 H       1  UNL111      0.0396
     32 H         118.7609  156.5650  146.4764 H       1  UNL111      0.1114
     33 H         121.0982  150.1976  145.3002 H       1  UNL111      0.0613
     34 H         120.6612  151.3186  144.0108 H       1  UNL111      0.0613
     35 H         118.6767  154.8518  144.6818 H       1  UNL111      0.0481
     36 H         119.7051  156.1936  144.2133 H       1  UNL111      0.0481
     37 H         122.4379  151.3590  148.8552 H       1  UNL111      0.0738
     38 H         121.0852  150.7883  147.8821 H       1  UNL111      0.0738
     39 H         123.8345  153.3543  147.3592 H       1  UNL111      0.0667
     40 H         124.5410  152.3040  146.0765 H       1  UNL111      0.0667
     41 H         124.4971  151.7372  147.7707 H       1  UNL111      0.0667
     42 H         118.3393  149.8847  144.7663 H       1  UNL111      0.0939
     43 H         116.1371  150.6150  145.6353 H       1  UNL111      0.1139
@<TRIPOS>UNITY_ATOM_ATTR
4 1
charge 1
@<TRIPOS>BOND
     1     1     7    1
     2     1    17    1
     3     2    12    1
     4     3    20    1
     5     4     8    1
     6     4    15    1
     7     4    18    1
     8     5     6    1
     9     5     7    1
    10     5     9    1
    11     5    10    1
    12     6     8    1
    13     6    11    1
    14     7    12    1
    15     8    13    1
    16     9    15    1
    17    10    16   ar
    18    10    17   ar
    19    11    14    1
    20    12    14    1
    21    13    16    1
    22    16    19   ar
    23    17    20   ar
    24    19    21   ar
    25    20    21   ar
    26     2    22    1
    27     3    23    1
    28     4    24    1
    29     6    25    1
    30     7    26    1
    31     8    27    1
    32     9    28    1
    33     9    29    1
    34    11    30    1
    35    11    31    1
    36    12    32    1
    37    13    33    1
    38    13    34    1
    39    14    35    1
    40    14    36    1
    41    15    37    1
    42    15    38    1
    43    18    39    1
    44    18    40    1
    45    18    41    1
    46    19    42    1
    47    21    43    1
@<TRIPOS>MOLECULE
9824861
 62 67 0 0 0
SMALL
GASTEIGER

@<TRIPOS>ATOM
      1 O         119.3361  154.5094  147.5243 O.2     1  UNL111     -0.5303
      2 O         117.9165  156.9251  147.3269 O.2     1  UNL111     -0.4040
      3 O         121.5546  154.4861  145.6762 O.2     1  UNL111     -0.5165
      4 O         122.4493  152.5154  146.6714 O.3     1  UNL111     -0.3811
      5 O         124.1832  155.4279  145.1700 O.3     1  UNL111     -0.4216
      6 O         126.2428  154.2012  146.7387 O.3     1  UNL111     -0.4311
      7 O         125.9443  151.4008  147.1228 O.3     1  UNL111     -0.4329
      8 O         122.0785  149.6809  147.1722 O.3     1  UNL111     -0.4475
      9 N         115.7590  150.8847  146.7119 N.4     1  UNL111      0.4270
     10 C         117.2833  153.3008  147.2259 C.3     1  UNL111      0.0597
     11 C         115.8188  153.3608  146.7813 C.3     1  UNL111     -0.0136
     12 C         115.5734  152.1472  145.8406 C.3     1  UNL111     -0.0250
     13 C         117.9214  154.5497  147.8637 C.3     1  UNL111      0.1355
     14 C         117.5038  152.0337  148.0829 C.3     1  UNL111     -0.0250
     15 C         118.1687  153.2368  146.0322 C.3     1  UNL111      0.0252
     16 C         115.4515  154.7118  146.1546 C.3     1  UNL111     -0.0274
     17 C         116.4860  152.1322  144.5724 C.3     1  UNL111     -0.0224
     18 C         117.1276  150.7479  147.3486 C.3     1  UNL111     -0.0366
     19 C         117.8784  152.6467  144.8159 C.3     1  UNL111     -0.0425
     20 C         115.8013  155.8500  147.1053 C.3     1  UNL111      0.0289
     21 C         119.3572  153.8863  146.2990 C.3     1  UNL111      0.1127
     22 C         117.2873  155.8699  147.3889 C.2     1  UNL111      0.1275
     23 C         115.3390  149.6066  146.0298 C.3     1  UNL111     -0.0445
     24 C         118.8877  152.6630  143.8530 C.3     1  UNL111     -0.0567
     25 C         120.3810  153.8621  145.3811 C.3     1  UNL111      0.1110
     26 C         120.1370  153.2562  144.1402 C.3     1  UNL111     -0.0096
     27 C         122.6625  153.5666  145.7217 C.3     1  UNL111      0.1484
     28 C         123.8954  154.3959  146.1268 C.3     1  UNL111      0.0990
     29 C         125.1118  153.4792  146.2278 C.3     1  UNL111      0.0785
     30 C         123.5418  151.5798  146.7020 C.3     1  UNL111      0.0787
     31 C         124.8272  152.2912  147.1488 C.3     1  UNL111      0.0729
     32 C         123.1923  150.4365  147.6655 C.3     1  UNL111      0.0362
     33 H         123.3792  155.9830  145.1243 H       1  UNL111      0.2455
     34 H         126.2849  155.0246  146.2102 H       1  UNL111      0.2419
     35 H         126.7322  151.9723  147.2392 H       1  UNL111      0.2416
     36 H         122.0630  148.8615  147.6969 H       1  UNL111      0.2362
     37 H         115.0946  150.9825  147.4918 H       1  UNL111      0.1324
     38 H         115.1778  153.2505  147.6686 H       1  UNL111      0.0627
     39 H         114.5215  152.1241  145.5313 H       1  UNL111      0.0835
     40 H         117.8259  154.5297  148.9560 H       1  UNL111      0.1606
     41 H         116.9000  152.1137  148.9968 H       1  UNL111      0.0545
     42 H         118.5468  151.9491  148.4149 H       1  UNL111      0.0545
     43 H         114.3768  154.7343  145.9393 H       1  UNL111      0.0427
     44 H         115.9676  154.8642  145.1999 H       1  UNL111      0.0427
     45 H         116.0258  152.7940  143.8270 H       1  UNL111      0.0613
     46 H         116.5322  151.1365  144.1224 H       1  UNL111      0.0613
     47 H         117.8426  150.4859  146.5625 H       1  UNL111      0.0738
     48 H         117.0704  149.9125  148.0551 H       1  UNL111      0.0738
     49 H         115.2677  155.7553  148.0571 H       1  UNL111      0.0688
     50 H         115.5171  156.8056  146.6514 H       1  UNL111      0.0688
     51 H         116.0843  149.3370  145.2787 H       1  UNL111      0.0667
     52 H         114.3574  149.7677  145.5776 H       1  UNL111      0.0667
     53 H         115.2719  148.8291  146.7957 H       1  UNL111      0.0667
     54 H         118.7239  152.2377  142.8643 H       1  UNL111      0.0940
     55 H         120.9020  153.2702  143.3671 H       1  UNL111      0.1146
     56 H         122.8177  153.1485  144.7176 H       1  UNL111      0.1972
     57 H         123.7253  154.8980  147.0875 H       1  UNL111      0.1390
     58 H         125.4125  153.1262  145.2332 H       1  UNL111      0.1252
     59 H         123.6601  151.1501  145.6982 H       1  UNL111      0.1248
     60 H         124.7238  152.6512  148.1804 H       1  UNL111      0.1230
     61 H         124.0358  149.7481  147.7786 H       1  UNL111      0.1017
     62 H         122.9101  150.8274  148.6485 H       1  UNL111      0.1017
@<TRIPOS>UNITY_ATOM_ATTR
9 1
charge 1
@<TRIPOS>BOND
     1     1    13    1
     2     1    21    1
     3     2    22    2
     4     3    25    1
     5     3    27    1
     6     4    27    1
     7     4    30    1
     8     5    28    1
     9     6    29    1
    10     7    31    1
    11     8    32    1
    12     9    12    1
    13     9    18    1
    14     9    23    1
    15    10    11    1
    16    10    13    1
    17    10    14    1
    18    10    15    1
    19    11    12    1
    20    11    16    1
    21    12    17    1
    22    13    22    1
    23    14    18    1
    24    15    19   ar
    25    15    21   ar
    26    16    20    1
    27    17    19    1
    28    19    24   ar
    29    20    22    1
    30    21    25   ar
    31    24    26   ar
    32    25    26   ar
    33    27    28    1
    34    28    29    1
    35    29    31    1
    36    30    31    1
    37    30    32    1
    38     5    33    1
    39     6    34    1
    40     7    35    1
    41     8    36    1
    42     9    37    1
    43    11    38    1
    44    12    39    1
    45    13    40    1
    46    14    41    1
    47    14    42    1
    48    16    43    1
    49    16    44    1
    50    17    45    1
    51    17    46    1
    52    18    47    1
    53    18    48    1
    54    20    49    1
    55    20    50    1
    56    23    51    1
    57    23    52    1
    58    23    53    1
    59    24    54    1
    60    26    55    1
    61    27    56    1
    62    28    57    1
    63    29    58    1
    64    30    59    1
    65    31    60    1
    66    32    61    1
    67    32    62    1
@<TRIPOS>MOLECULE
75212984
 44 48 0 0 0
SMALL
GASTEIGER

@<TRIPOS>ATOM
      1 S         123.2998  151.9849  147.5179 S.3     1  UNL111      0.0055
      2 O         120.7260  154.7226  147.0474 O.2     1  UNL111     -0.5282
      3 O         119.6111  157.0300  145.7541 O.2     1  UNL111     -0.4040
      4 O         123.0341  153.0827  146.3062 O.2     1  UNL111     -0.4142
      5 O         124.2865  152.6359  148.3727 O.co2   1  UNL111     -0.2184
      6 O         121.9961  151.7746  148.1649 O.2     1  UNL111     -0.3434
      7 O         123.7889  150.8008  146.8121 O.2     1  UNL111     -0.3434
      8 N         116.9070  151.3683  147.1856 N.4     1  UNL111      0.4270
      9 C         118.5632  153.7300  146.9396 C.3     1  UNL111      0.0600
     10 C         117.1404  153.7231  146.3881 C.3     1  UNL111     -0.0136
     11 C         116.8435  152.2651  145.9228 C.3     1  UNL111     -0.0250
     12 C         119.3157  155.0505  147.1547 C.3     1  UNL111      0.1359
     13 C         118.6115  152.8574  148.2180 C.3     1  UNL111     -0.0250
     14 C         119.4947  153.1682  145.9218 C.3     1  UNL111      0.0275
     15 C         116.9454  154.7853  145.2983 C.3     1  UNL111     -0.0274
     16 C         117.7928  151.7615  144.7915 C.3     1  UNL111     -0.0224
     17 C         118.2308  151.4102  147.9455 C.3     1  UNL111     -0.0366
     18 C         119.2213  152.1681  145.0018 C.3     1  UNL111     -0.0420
     19 C         117.3951  156.1542  145.7991 C.3     1  UNL111      0.0289
     20 C         118.8670  156.1410  146.1642 C.2     1  UNL111      0.1275
     21 C         120.7514  153.6691  146.1662 C.3     1  UNL111      0.1256
     22 C         116.4815  149.9443  146.9490 C.3     1  UNL111     -0.0445
     23 C         120.3104  151.6056  144.3394 C.3     1  UNL111     -0.0545
     24 C         121.8276  152.9772  145.6752 C.3     1  UNL111      0.1589
     25 C         121.6160  151.9790  144.7116 C.3     1  UNL111      0.0033
     26 H         116.2112  151.7486  147.8387 H       1  UNL111      0.1324
     27 H         116.4428  153.9796  147.1989 H       1  UNL111      0.0627
     28 H         115.8043  152.1937  145.5798 H       1  UNL111      0.0835
     29 H         119.1322  155.4513  148.1592 H       1  UNL111      0.1606
     30 H         117.9257  153.2801  148.9646 H       1  UNL111      0.0545
     31 H         119.6024  152.8725  148.6867 H       1  UNL111      0.0545
     32 H         115.8871  154.8281  145.0157 H       1  UNL111      0.0427
     33 H         117.5043  154.5348  144.3897 H       1  UNL111      0.0427
     34 H         117.4620  152.2032  143.8431 H       1  UNL111      0.0613
     35 H         117.7240  150.6766  144.6702 H       1  UNL111      0.0613
     36 H         118.9782  150.8635  147.3634 H       1  UNL111      0.0738
     37 H         118.0703  150.8765  148.8888 H       1  UNL111      0.0738
     38 H         116.8232  156.4643  146.6802 H       1  UNL111      0.0688
     39 H         117.2354  156.9004  145.0132 H       1  UNL111      0.0688
     40 H         117.2674  149.4171  146.4040 H       1  UNL111      0.0667
     41 H         115.5459  149.9574  146.3844 H       1  UNL111      0.0667
     42 H         116.3180  149.4792  147.9251 H       1  UNL111      0.0667
     43 H         120.1807  150.8112  143.6088 H       1  UNL111      0.0942
     44 H         122.4721  151.4297  144.3221 H       1  UNL111      0.1174
@<TRIPOS>UNITY_ATOM_ATTR
5 1
charge -1
8 1
charge 1
@<TRIPOS>BOND
     1     1     4    1
     2     1     5    1
     3     1     6    2
     4     1     7    2
     5     2    12    1
     6     2    21    1
     7     3    20    2
     8     4    24    1
     9     8    11    1
    10     8    17    1
    11     8    22    1
    12     9    10    1
    13     9    12    1
    14     9    13    1
    15     9    14    1
    16    10    11    1
    17    10    15    1
    18    11    16    1
    19    12    20    1
    20    13    17    1
    21    14    18   ar
    22    14    21   ar
    23    15    19    1
    24    16    18    1
    25    18    23   ar
    26    19    20    1
    27    21    24   ar
    28    23    25   ar
    29    24    25   ar
    30     8    26    1
    31    10    27    1
    32    11    28    1
    33    12    29    1
    34    13    30    1
    35    13    31    1
    36    15    32    1
    37    15    33    1
    38    16    34    1
    39    16    35    1
    40    17    36    1
    41    17    37    1
    42    19    38    1
    43    19    39    1
    44    22    40    1
    45    22    41    1
    46    22    42    1
    47    23    43    1
    48    25    44    1
@<TRIPOS>MOLECULE
91753581
 51 55 0 0 0
SMALL
GASTEIGER

@<TRIPOS>ATOM
      1 O         118.5937  152.3785  146.8259 O.2     1  UNL111     -0.5314
      2 O         119.3551  149.7221  145.7715 O.3     1  UNL111     -0.4695
      3 O         116.3965  154.0382  145.7936 O.3     1  UNL111     -0.4569
      4 O         120.5353  148.9279  147.6019 O.2     1  UNL111     -0.3384
      5 O         116.5127  154.7546  148.0199 O.2     1  UNL111     -0.3381
      6 N         123.1808  154.7992  147.3683 N.4     1  UNL111      0.4271
      7 C         120.9181  153.0629  146.8678 C.3     1  UNL111      0.0592
      8 C         122.2297  152.8998  146.0930 C.3     1  UNL111     -0.0101
      9 C         122.8450  154.3168  145.9393 C.3     1  UNL111     -0.0240
     10 C         119.9606  151.8515  146.9091 C.3     1  UNL111      0.1263
     11 C         121.1945  153.6091  148.2849 C.3     1  UNL111     -0.0250
     12 C         120.0410  154.0085  146.1292 C.3     1  UNL111      0.0259
     13 C         121.9244  155.3328  145.1815 C.3     1  UNL111     -0.0222
     14 C         122.0540  152.1742  144.7443 C.3     1  UNL111     -0.0169
     15 C         121.9814  154.9147  148.2830 C.3     1  UNL111     -0.0365
     16 C         120.4496  155.1127  145.3996 C.3     1  UNL111     -0.0424
     17 C         118.7290  153.5996  146.2157 C.3     1  UNL111      0.1168
     18 C         120.1936  150.8541  145.7889 C.2     1  UNL111      0.0929
     19 C         121.1138  151.0099  144.8232 C.2     1  UNL111     -0.0360
     20 C         124.0365  156.0383  147.4117 C.3     1  UNL111     -0.0444
     21 C         119.4482  155.8926  144.8159 C.3     1  UNL111     -0.0561
     22 C         117.7340  154.3901  145.6868 C.3     1  UNL111      0.1323
     23 C         118.0909  155.5412  144.9740 C.3     1  UNL111     -0.0054
     24 C         119.6391  148.8244  146.7720 C.2     1  UNL111      0.2243
     25 C         115.9151  154.2374  147.0832 C.2     1  UNL111      0.2266
     26 C         118.6872  147.6693  146.6937 C.3     1  UNL111      0.0569
     27 C         114.4985  153.7492  147.1513 C.3     1  UNL111      0.0573
     28 H         123.7758  154.0653  147.7781 H       1  UNL111      0.1324
     29 H         122.9103  152.2776  146.6938 H       1  UNL111      0.0644
     30 H         123.8132  154.2502  145.4286 H       1  UNL111      0.0838
     31 H         120.0459  151.3416  147.8747 H       1  UNL111      0.1588
     32 H         121.7619  152.8563  148.8488 H       1  UNL111      0.0545
     33 H         120.2607  153.7669  148.8403 H       1  UNL111      0.0545
     34 H         122.1111  155.2059  144.1071 H       1  UNL111      0.0613
     35 H         122.1808  156.3679  145.4240 H       1  UNL111      0.0613
     36 H         123.0372  151.8134  144.4175 H       1  UNL111      0.0508
     37 H         121.6982  152.8459  143.9558 H       1  UNL111      0.0508
     38 H         121.3823  155.7686  147.9519 H       1  UNL111      0.0738
     39 H         122.3614  155.1289  149.2880 H       1  UNL111      0.0738
     40 H         121.1835  150.2633  144.0338 H       1  UNL111      0.1003
     41 H         123.4342  156.9033  147.1270 H       1  UNL111      0.0667
     42 H         124.8773  155.8969  146.7283 H       1  UNL111      0.0667
     43 H         124.4051  156.1515  148.4349 H       1  UNL111      0.0667
     44 H         119.6984  156.7678  144.2187 H       1  UNL111      0.0940
     45 H         117.3174  156.1571  144.5205 H       1  UNL111      0.1154
     46 H         117.6585  148.0303  146.7718 H       1  UNL111      0.0797
     47 H         118.8777  146.9861  147.5263 H       1  UNL111      0.0797
     48 H         118.8364  147.1299  145.7552 H       1  UNL111      0.0797
     49 H         114.4503  152.7038  146.8358 H       1  UNL111      0.0797
     50 H         113.8619  154.3725  146.5188 H       1  UNL111      0.0797
     51 H         114.1433  153.8128  148.1838 H       1  UNL111      0.0797
@<TRIPOS>UNITY_ATOM_ATTR
6 1
charge 1
@<TRIPOS>BOND
     1     1    10    1
     2     1    17    1
     3     2    18    1
     4     2    24    1
     5     3    22    1
     6     3    25    1
     7     4    24    2
     8     5    25    2
     9     6     9    1
    10     6    15    1
    11     6    20    1
    12     7     8    1
    13     7    10    1
    14     7    11    1
    15     7    12    1
    16     8     9    1
    17     8    14    1
    18     9    13    1
    19    10    18    1
    20    11    15    1
    21    12    16   ar
    22    12    17   ar
    23    13    16    1
    24    14    19    1
    25    16    21   ar
    26    17    22   ar
    27    18    19    2
    28    21    23   ar
    29    22    23   ar
    30    24    26    1
    31    25    27    1
    32     6    28    1
    33     8    29    1
    34     9    30    1
    35    10    31    1
    36    11    32    1
    37    11    33    1
    38    13    34    1
    39    13    35    1
    40    14    36    1
    41    14    37    1
    42    15    38    1
    43    15    39    1
    44    19    40    1
    45    20    41    1
    46    20    42    1
    47    20    43    1
    48    21    44    1
    49    23    45    1
    50    26    46    1
    51    26    47    1
    52    26    48    1
    53    27    49    1
    54    27    50    1
    55    27    51    1
@<TRIPOS>MOLECULE
131769997
 60 65 0 0 0
SMALL
GASTEIGER

@<TRIPOS>ATOM
      1 O         118.8322  154.8881  145.6581 O.2     1  UNL111     -0.5303
      2 O         117.9745  156.7716  147.5689 O.2     1  UNL111     -0.4040
      3 O         121.4094  153.8157  146.2608 O.2     1  UNL111     -0.5162
      4 O         123.0928  152.6230  147.5000 O.3     1  UNL111     -0.3726
      5 O         122.9109  156.1722  146.5207 O.3     1  UNL111     -0.4215
      6 O         125.3105  155.2991  145.2576 O.3     1  UNL111     -0.4308
      7 O         125.2532  152.5433  144.4768 O.3     1  UNL111     -0.4313
      8 O         123.3474  149.7220  146.6407 O.co2   1  UNL111     -0.5544
      9 O         125.4050  150.5682  147.1792 O.co2   1  UNL111     -0.5544
     10 N         114.9941  151.4445  145.4547 N.4     1  UNL111      0.4270
     11 C         116.7472  153.7181  145.8959 C.3     1  UNL111      0.0597
     12 C         115.5018  153.4938  146.7583 C.3     1  UNL111     -0.0136
     13 C         115.2962  151.9562  146.8816 C.3     1  UNL111     -0.0250
     14 C         117.4115  155.1069  145.8867 C.3     1  UNL111      0.1355
     15 C         116.4793  153.1939  144.4671 C.3     1  UNL111     -0.0250
     16 C         117.8949  152.9744  146.4776 C.3     1  UNL111      0.0252
     17 C         115.5944  154.2136  148.1098 C.3     1  UNL111     -0.0274
     18 C         116.4971  151.2067  147.5359 C.3     1  UNL111     -0.0224
     19 C         116.0872  151.7178  144.4406 C.3     1  UNL111     -0.0366
     20 C         117.8355  151.7788  147.1683 C.3     1  UNL111     -0.0425
     21 C         115.8756  155.6966  147.9043 C.3     1  UNL111      0.0289
     22 C         119.0700  153.6635  146.2418 C.3     1  UNL111      0.1127
     23 C         117.1887  155.9075  147.1818 C.2     1  UNL111      0.1275
     24 C         114.5573  150.0012  145.4082 C.3     1  UNL111     -0.0445
     25 C         119.0499  151.2204  147.5489 C.3     1  UNL111     -0.0567
     26 C         120.2851  153.1291  146.6089 C.3     1  UNL111      0.1111
     27 C         120.2616  151.8786  147.2455 C.3     1  UNL111     -0.0096
     28 C         122.4461  153.8581  147.2596 C.3     1  UNL111      0.1502
     29 C         123.4983  154.8908  146.8241 C.3     1  UNL111      0.0995
     30 C         124.2409  154.3879  145.5856 C.3     1  UNL111      0.0797
     31 C         124.8024  152.9691  145.7740 C.3     1  UNL111      0.0796
     32 C         123.7158  152.0453  146.3214 C.3     1  UNL111      0.1102
     33 C         124.2251  150.6386  146.7331 C.2     1  UNL111      0.0700
     34 H         122.0687  155.9793  146.0620 H       1  UNL111      0.2455
     35 H         124.9393  156.1908  145.4055 H       1  UNL111      0.2420
     36 H         126.0019  153.1342  144.2728 H       1  UNL111      0.2419
     37 H         114.1714  151.9714  145.1343 H       1  UNL111      0.1324
     38 H         114.6318  153.9225  146.2391 H       1  UNL111      0.0627
     39 H         114.3837  151.7496  147.4538 H       1  UNL111      0.0835
     40 H         117.0210  155.7240  145.0684 H       1  UNL111      0.1606
     41 H         117.3542  153.3303  143.8182 H       1  UNL111      0.0545
     42 H         115.6721  153.7871  144.0169 H       1  UNL111      0.0545
     43 H         116.3774  153.7808  148.7426 H       1  UNL111      0.0427
     44 H         114.6494  154.0941  148.6528 H       1  UNL111      0.0427
     45 H         116.4748  150.1364  147.3126 H       1  UNL111      0.0613
     46 H         116.3945  151.3027  148.6247 H       1  UNL111      0.0613
     47 H         115.6837  151.4529  143.4570 H       1  UNL111      0.0738
     48 H         116.9280  151.0521  144.6582 H       1  UNL111      0.0738
     49 H         115.9287  156.1945  148.8786 H       1  UNL111      0.0688
     50 H         115.0812  156.1752  147.3219 H       1  UNL111      0.0688
     51 H         115.4218  149.3555  145.5747 H       1  UNL111      0.0667
     52 H         114.1302  149.8172  144.4185 H       1  UNL111      0.0667
     53 H         113.7932  149.8511  146.1749 H       1  UNL111      0.0667
     54 H         119.1008  150.2694  148.0773 H       1  UNL111      0.0940
     55 H         121.1826  151.3617  147.5139 H       1  UNL111      0.1146
     56 H         121.9970  154.2067  148.1987 H       1  UNL111      0.1975
     57 H         124.2222  155.0551  147.6311 H       1  UNL111      0.1391
     58 H         123.5752  154.4122  144.7131 H       1  UNL111      0.1254
     59 H         125.6746  153.0032  146.4378 H       1  UNL111      0.1249
     60 H         122.9497  151.8841  145.5509 H       1  UNL111      0.1368
@<TRIPOS>UNITY_ATOM_ATTR
8 1
charge -1
10 1
charge 1
@<TRIPOS>BOND
     1     1    14    1
     2     1    22    1
     3     2    23    2
     4     3    26    1
     5     3    28    1
     6     4    28    1
     7     4    32    1
     8     5    29    1
     9     6    30    1
    10     7    31    1
    11     8    33   ar
    12     9    33   ar
    13    10    13    1
    14    10    19    1
    15    10    24    1
    16    11    12    1
    17    11    14    1
    18    11    15    1
    19    11    16    1
    20    12    13    1
    21    12    17    1
    22    13    18    1
    23    14    23    1
    24    15    19    1
    25    16    20   ar
    26    16    22   ar
    27    17    21    1
    28    18    20    1
    29    20    25   ar
    30    21    23    1
    31    22    26   ar
    32    25    27   ar
    33    26    27   ar
    34    28    29    1
    35    29    30    1
    36    30    31    1
    37    31    32    1
    38    32    33    1
    39     5    34    1
    40     6    35    1
    41     7    36    1
    42    10    37    1
    43    12    38    1
    44    13    39    1
    45    14    40    1
    46    15    41    1
    47    15    42    1
    48    17    43    1
    49    17    44    1
    50    18    45    1
    51    18    46    1
    52    19    47    1
    53    19    48    1
    54    21    49    1
    55    21    50    1
    56    24    51    1
    57    24    52    1
    58    24    53    1
    59    25    54    1
    60    27    55    1
    61    28    56    1
    62    29    57    1
    63    30    58    1
    64    31    59    1
    65    32    60    1
@<TRIPOS>MOLECULE
131770048
 62 67 0 0 0
SMALL
GASTEIGER

@<TRIPOS>ATOM
      1 O         120.2235  153.3871  148.1535 O.2     1  UNL111     -0.5303
      2 O         119.4843  150.6656  147.8733 O.2     1  UNL111     -0.4040
      3 O         118.2994  155.1361  146.8887 O.2     1  UNL111     -0.5165
      4 O         117.4372  153.0801  146.0549 O.3     1  UNL111     -0.3811
      5 O         116.1482  154.1313  148.4272 O.3     1  UNL111     -0.4216
      6 O         113.6278  154.0651  147.3630 O.3     1  UNL111     -0.4311
      7 O         113.9602  151.9710  145.4527 O.3     1  UNL111     -0.4329
      8 O         117.8580  150.8299  144.2726 O.3     1  UNL111     -0.4475
      9 N         125.0449  153.5873  146.2931 N.4     1  UNL111      0.4270
     10 C         122.4084  152.8793  147.2848 C.3     1  UNL111      0.0597
     11 C         123.2432  151.8946  146.4611 C.3     1  UNL111     -0.0136
     12 C         124.0765  152.7292  145.4477 C.3     1  UNL111     -0.0250
     13 C         121.2322  152.3373  148.1212 C.3     1  UNL111      0.1355
     14 C         123.3520  153.7719  148.1218 C.3     1  UNL111     -0.0250
     15 C         121.6084  153.7388  146.3721 C.3     1  UNL111      0.0252
     16 C         122.3792  150.8113  145.8044 C.3     1  UNL111     -0.0274
     17 C         123.2134  153.5954  144.4760 C.3     1  UNL111     -0.0224
     18 C         124.3705  154.5267  147.2694 C.3     1  UNL111     -0.0366
     19 C         121.9634  154.1532  145.1005 C.3     1  UNL111     -0.0425
     20 C         121.5567  150.0794  146.8568 C.3     1  UNL111      0.0289
     21 C         120.3928  154.0347  146.9529 C.3     1  UNL111      0.1127
     22 C         120.6295  151.0217  147.5947 C.2     1  UNL111      0.1275
     23 C         126.0974  154.2993  145.4794 C.3     1  UNL111     -0.0445
     24 C         121.0652  154.9884  144.4338 C.3     1  UNL111     -0.0567
     25 C         119.4920  154.8448  146.2998 C.3     1  UNL111      0.1110
     26 C         119.8451  155.3519  145.0425 C.3     1  UNL111     -0.0096
     27 C         117.2029  154.4813  146.2194 C.3     1  UNL111      0.1484
     28 C         115.9626  154.6949  147.1092 C.3     1  UNL111      0.0990
     29 C         114.7578  154.0023  146.4790 C.3     1  UNL111      0.0785
     30 C         116.3635  152.4113  145.3727 C.3     1  UNL111      0.0787
     31 C         115.0608  152.5283  146.1777 C.3     1  UNL111      0.0729
     32 C         116.7541  150.9396  145.1809 C.3     1  UNL111      0.0362
     33 H         117.1157  154.0952  148.5762 H       1  UNL111      0.2455
     34 H         114.0000  153.9606  148.2648 H       1  UNL111      0.2419
     35 H         113.1572  152.2578  145.9350 H       1  UNL111      0.2416
     36 H         118.0317  149.8766  144.1890 H       1  UNL111      0.2362
     37 H         125.5809  152.9209  146.8660 H       1  UNL111      0.1324
     38 H         123.9366  151.3704  147.1351 H       1  UNL111      0.0627
     39 H         124.7254  152.0653  144.8641 H       1  UNL111      0.0835
     40 H         121.5507  152.1359  149.1517 H       1  UNL111      0.1606
     41 H         123.8885  153.1420  148.8441 H       1  UNL111      0.0545
     42 H         122.7887  154.5032  148.7160 H       1  UNL111      0.0545
     43 H         123.0259  150.0941  145.2856 H       1  UNL111      0.0427
     44 H         121.7082  151.2343  145.0484 H       1  UNL111      0.0427
     45 H         122.8952  152.9444  143.6511 H       1  UNL111      0.0613
     46 H         123.7978  154.4050  144.0300 H       1  UNL111      0.0613
     47 H         123.9170  155.3419  146.6967 H       1  UNL111      0.0738
     48 H         125.1567  154.9487  147.9053 H       1  UNL111      0.0738
     49 H         122.2043  149.5907  147.5932 H       1  UNL111      0.0688
     50 H         120.9530  149.3057  146.3701 H       1  UNL111      0.0688
     51 H         125.6376  155.1346  144.9472 H       1  UNL111      0.0667
     52 H         126.5384  153.5790  144.7861 H       1  UNL111      0.0667
     53 H         126.8608  154.6641  146.1720 H       1  UNL111      0.0667
     54 H         121.2771  155.3472  143.4281 H       1  UNL111      0.0940
     55 H         119.1599  156.0060  144.5084 H       1  UNL111      0.1146
     56 H         117.0450  154.9531  145.2402 H       1  UNL111      0.1972
     57 H         115.7692  155.7616  147.2646 H       1  UNL111      0.1390
     58 H         114.4624  154.5151  145.5560 H       1  UNL111      0.1252
     59 H         116.2489  152.8646  144.3790 H       1  UNL111      0.1248
     60 H         115.1414  151.9699  147.1186 H       1  UNL111      0.1230
     61 H         117.0647  150.4937  146.1314 H       1  UNL111      0.1017
     62 H         115.9250  150.3608  144.7625 H       1  UNL111      0.1017
@<TRIPOS>UNITY_ATOM_ATTR
9 1
charge 1
@<TRIPOS>BOND
     1     1    13    1
     2     1    21    1
     3     2    22    2
     4     3    25    1
     5     3    27    1
     6     4    27    1
     7     4    30    1
     8     5    28    1
     9     6    29    1
    10     7    31    1
    11     8    32    1
    12     9    12    1
    13     9    18    1
    14     9    23    1
    15    10    11    1
    16    10    13    1
    17    10    14    1
    18    10    15    1
    19    11    12    1
    20    11    16    1
    21    12    17    1
    22    13    22    1
    23    14    18    1
    24    15    19   ar
    25    15    21   ar
    26    16    20    1
    27    17    19    1
    28    19    24   ar
    29    20    22    1
    30    21    25   ar
    31    24    26   ar
    32    25    26   ar
    33    27    28    1
    34    28    29    1
    35    29    31    1
    36    30    31    1
    37    30    32    1
    38     5    33    1
    39     6    34    1
    40     7    35    1
    41     8    36    1
    42     9    37    1
    43    11    38    1
    44    12    39    1
    45    13    40    1
    46    14    41    1
    47    14    42    1
    48    16    43    1
    49    16    44    1
    50    17    45    1
    51    17    46    1
    52    18    47    1
    53    18    48    1
    54    20    49    1
    55    20    50    1
    56    23    51    1
    57    23    52    1
    58    23    53    1
    59    24    54    1
    60    26    55    1
    61    27    56    1
    62    28    57    1
    63    29    58    1
    64    30    59    1
    65    31    60    1
    66    32    61    1
    67    32    62    1
@<TRIPOS>MOLECULE
5288826
 41 45 0 0 0
SMALL
GASTEIGER

@<TRIPOS>ATOM
      1 O         117.8923  152.5789  147.6690 O.3     1  UNL111     -0.5439
      2 O         117.0631  150.6369  146.0833 O.3     1  UNL111     -0.4348
      3 O         116.2861  154.9401  147.0992 O.3     1  UNL111     -0.5485
      4 N         123.0269  153.1374  146.8635 N.4     1  UNL111      0.4275
      5 C         120.2412  152.3261  147.0685 C.3     1  UNL111      0.0532
      6 C         121.1601  151.7371  145.9869 C.3     1  UNL111     -0.0026
      7 C         122.1772  152.8568  145.6001 C.3     1  UNL111     -0.0206
      8 C         118.9349  151.5665  147.4091 C.3     1  UNL111      0.0902
      9 C         121.0623  152.6642  148.3312 C.3     1  UNL111     -0.0259
     10 C         119.6148  153.5739  146.5416 C.ar    1  UNL111      0.0232
     11 C         121.5111  154.1501  145.0361 C.3     1  UNL111     -0.0213
     12 C         122.2298  153.6111  148.0575 C.3     1  UNL111     -0.0364
     13 C         120.1863  154.4820  145.6663 C.ar    1  UNL111     -0.0425
     14 C         118.4619  150.5586  146.3207 C.3     1  UNL111      0.0605
     15 C         120.3866  151.1669  144.8278 C.2     1  UNL111     -0.0869
     16 C         118.3153  153.6841  146.9798 C.ar    1  UNL111      0.1050
     17 C         119.1606  150.6472  144.9943 C.2     1  UNL111     -0.0672
     18 C         124.2260  154.0151  146.6086 C.3     1  UNL111     -0.0442
     19 C         119.4265  155.6041  145.3238 C.ar    1  UNL111     -0.0573
     20 C         117.5625  154.7894  146.6615 C.ar    1  UNL111      0.0917
     21 C         118.1247  155.7659  145.8404 C.ar    1  UNL111     -0.0140
     22 H         116.7670  151.5229  146.3611 H       1  UNL111      0.2424
     23 H         116.0763  154.1737  147.6639 H       1  UNL111      0.3393
     24 H         123.4326  152.2300  147.1323 H       1  UNL111      0.1328
     25 H         121.7269  150.8942  146.4089 H       1  UNL111      0.0720
     26 H         122.8924  152.4697  144.8636 H       1  UNL111      0.0854
     27 H         119.0485  151.0095  148.3481 H       1  UNL111      0.1417
     28 H         121.4552  151.7310  148.7566 H       1  UNL111      0.0544
     29 H         120.4293  153.1113  149.1088 H       1  UNL111      0.0544
     30 H         121.3215  153.9814  143.9677 H       1  UNL111      0.0615
     31 H         122.1801  155.0125  145.1049 H       1  UNL111      0.0615
     32 H         121.9016  154.6366  147.8610 H       1  UNL111      0.0738
     33 H         122.9121  153.6263  148.9146 H       1  UNL111      0.0738
     34 H         118.6530  149.5452  146.6952 H       1  UNL111      0.1221
     35 H         120.8431  151.1287  143.8402 H       1  UNL111      0.0812
     36 H         118.6433  150.2033  144.1442 H       1  UNL111      0.0909
     37 H         123.8942  155.0441  146.4565 H       1  UNL111      0.0667
     38 H         124.7498  153.6311  145.7298 H       1  UNL111      0.0667
     39 H         124.8759  153.9505  147.4856 H       1  UNL111      0.0667
     40 H         119.8116  156.3511  144.6319 H       1  UNL111      0.0939
     41 H         117.5349  156.6377  145.5640 H       1  UNL111      0.1139
@<TRIPOS>UNITY_ATOM_ATTR
4 1
charge 1
@<TRIPOS>BOND
     1     1     8    1
     2     1    16    1
     3     2    14    1
     4     3    20    1
     5     4     7    1
     6     4    12    1
     7     4    18    1
     8     5     6    1
     9     5     8    1
    10     5     9    1
    11     5    10    1
    12     6     7    1
    13     6    15    1
    14     7    11    1
    15     8    14    1
    16     9    12    1
    17    10    13   ar
    18    10    16   ar
    19    11    13    1
    20    13    19   ar
    21    14    17    1
    22    15    17    2
    23    16    20   ar
    24    19    21   ar
    25    20    21   ar
    26     2    22    1
    27     3    23    1
    28     4    24    1
    29     6    25    1
    30     7    26    1
    31     8    27    1
    32     9    28    1
    33     9    29    1
    34    11    30    1
    35    11    31    1
    36    12    32    1
    37    12    33    1
    38    14    34    1
    39    15    35    1
    40    17    36    1
    41    18    37    1
    42    18    38    1
    43    18    39    1
    44    19    40    1
    45    21    41    1
@<TRIPOS>MOLECULE
5359421
 43 47 0 0 0
SMALL
GASTEIGER

@<TRIPOS>ATOM
      1 O         121.7842  153.6933  147.7673 O.3     1  UNL111     -0.5457
      2 O         121.9022  155.0037  145.3315 O.3     1  UNL111     -0.4416
      3 O         123.6014  151.5023  147.0898 O.3     1  UNL111     -0.5485
      4 N         116.7958  152.6270  146.8574 N.4     1  UNL111      0.4269
      5 C         119.4559  153.7725  147.1059 C.3     1  UNL111      0.0474
      6 C         118.4141  154.3529  146.1474 C.3     1  UNL111     -0.0179
      7 C         120.6881  154.6311  147.4654 C.3     1  UNL111      0.0840
      8 C         117.5616  153.1674  145.6241 C.3     1  UNL111     -0.0256
      9 C         118.7198  153.2263  148.3525 C.3     1  UNL111     -0.0273
     10 C         120.1989  152.6484  146.4830 C.ar    1  UNL111      0.0216
     11 C         119.0149  155.2321  145.0494 C.3     1  UNL111     -0.0398
     12 C         121.1366  155.6313  146.3617 C.3     1  UNL111      0.0437
     13 C         118.3837  152.0515  144.9013 C.3     1  UNL111     -0.0225
     14 C         119.9420  156.2869  145.6690 C.3     1  UNL111     -0.0235
     15 C         117.6739  152.1648  148.0019 C.3     1  UNL111     -0.0369
     16 C         119.7252  151.7756  145.5226 C.ar    1  UNL111     -0.0430
     17 C         121.4849  152.6015  146.9818 C.ar    1  UNL111      0.1044
     18 C         115.7424  151.6038  146.5180 C.3     1  UNL111     -0.0445
     19 C         120.5884  150.7535  145.1215 C.ar    1  UNL111     -0.0573
     20 C         122.3348  151.5895  146.6095 C.ar    1  UNL111      0.0916
     21 C         121.8815  150.6499  145.6821 C.ar    1  UNL111     -0.0140
     22 H         122.6908  154.6109  145.7510 H       1  UNL111      0.2393
     23 H         123.7220  152.2332  147.7237 H       1  UNL111      0.3393
     24 H         116.2619  153.4288  147.2192 H       1  UNL111      0.1324
     25 H         117.7559  155.0231  146.7216 H       1  UNL111      0.0619
     26 H         120.4797  155.2055  148.3771 H       1  UNL111      0.1393
     27 H         116.7807  153.5384  144.9494 H       1  UNL111      0.0835
     28 H         118.2244  154.0598  148.8682 H       1  UNL111      0.0541
     29 H         119.4208  152.7956  149.0793 H       1  UNL111      0.0541
     30 H         118.2071  155.7371  144.5061 H       1  UNL111      0.0396
     31 H         119.5597  154.6351  144.3099 H       1  UNL111      0.0396
     32 H         121.7821  156.3966  146.8069 H       1  UNL111      0.1114
     33 H         118.5709  152.3923  143.8746 H       1  UNL111      0.0613
     34 H         117.8126  151.1220  144.8242 H       1  UNL111      0.0613
     35 H         119.3850  156.9053  146.3827 H       1  UNL111      0.0481
     36 H         120.2969  156.9456  144.8673 H       1  UNL111      0.0481
     37 H         118.1264  151.2102  147.7155 H       1  UNL111      0.0738
     38 H         117.0150  151.9879  148.8592 H       1  UNL111      0.0738
     39 H         116.2269  150.6589  146.2636 H       1  UNL111      0.0667
     40 H         115.1508  151.9862  145.6827 H       1  UNL111      0.0667
     41 H         115.1055  151.4796  147.3982 H       1  UNL111      0.0667
     42 H         120.2909  150.0386  144.3564 H       1  UNL111      0.0939
     43 H         122.5490  149.8536  145.3587 H       1  UNL111      0.1139
@<TRIPOS>UNITY_ATOM_ATTR
4 1
charge 1
@<TRIPOS>BOND
     1     1     7    1
     2     1    17    1
     3     2    12    1
     4     3    20    1
     5     4     8    1
     6     4    15    1
     7     4    18    1
     8     5     6    1
     9     5     7    1
    10     5     9    1
    11     5    10    1
    12     6     8    1
    13     6    11    1
    14     7    12    1
    15     8    13    1
    16     9    15    1
    17    10    16   ar
    18    10    17   ar
    19    11    14    1
    20    12    14    1
    21    13    16    1
    22    16    19   ar
    23    17    20   ar
    24    19    21   ar
    25    20    21   ar
    26     2    22    1
    27     3    23    1
    28     4    24    1
    29     6    25    1
    30     7    26    1
    31     8    27    1
    32     9    28    1
    33     9    29    1
    34    11    30    1
    35    11    31    1
    36    12    32    1
    37    13    33    1
    38    13    34    1
    39    14    35    1
    40    14    36    1
    41    15    37    1
    42    15    38    1
    43    18    39    1
    44    18    40    1
    45    18    41    1
    46    19    42    1
    47    21    43    1
@<TRIPOS>MOLECULE
131769955
 43 47 0 0 0
SMALL
GASTEIGER

@<TRIPOS>ATOM
      1 O         118.1443  154.3379  145.2618 O.3     1  UNL111     -0.5457
      2 O         120.9068  156.5547  146.2658 O.3     1  UNL111     -0.4416
      3 O         115.6812  152.8828  145.7503 O.3     1  UNL111     -0.5485
      4 N         122.6059  151.6303  146.0527 N.4     1  UNL111      0.4269
      5 C         120.3744  153.4993  145.8002 C.3     1  UNL111      0.0474
      6 C         121.3654  153.6225  146.9608 C.3     1  UNL111     -0.0179
      7 C         119.5398  154.7495  145.4402 C.3     1  UNL111      0.0840
      8 C         121.8682  152.1898  147.2875 C.3     1  UNL111     -0.0256
      9 C         121.0698  152.9245  144.5493 C.3     1  UNL111     -0.0273
     10 C         119.2742  152.6050  146.2462 C.ar    1  UNL111      0.0216
     11 C         120.7951  154.3457  148.2031 C.3     1  UNL111     -0.0398
     12 C         119.6651  155.8749  146.4833 C.3     1  UNL111      0.0437
     13 C         120.7305  151.1929  147.6986 C.3     1  UNL111     -0.0225
     14 C         119.6648  155.3460  147.9154 C.3     1  UNL111     -0.0235
     15 C         121.7675  151.5936  144.7965 C.3     1  UNL111     -0.0369
     16 C         119.3962  151.4914  147.0634 C.ar    1  UNL111     -0.0430
     17 C         118.0561  153.1052  145.8499 C.ar    1  UNL111      0.1044
     18 C         123.9646  152.2482  145.8301 C.3     1  UNL111     -0.0445
     19 C         118.2265  150.7860  147.3587 C.ar    1  UNL111     -0.0573
     20 C         116.8985  152.4205  146.1365 C.ar    1  UNL111      0.0916
     21 C         116.9825  151.2403  146.8749 C.ar    1  UNL111     -0.0140
     22 H         120.8450  157.4139  146.7255 H       1  UNL111      0.2393
     23 H         115.8332  153.7185  145.2703 H       1  UNL111      0.3393
     24 H         122.8121  150.6458  146.2708 H       1  UNL111      0.1324
     25 H         122.2130  154.2329  146.6238 H       1  UNL111      0.0619
     26 H         119.8630  155.1536  144.4716 H       1  UNL111      0.1393
     27 H         122.6182  152.2084  148.0872 H       1  UNL111      0.0835
     28 H         121.8076  153.6524  144.1873 H       1  UNL111      0.0541
     29 H         120.3511  152.7881  143.7303 H       1  UNL111      0.0541
     30 H         121.6243  154.8791  148.6872 H       1  UNL111      0.0396
     31 H         120.4398  153.6368  148.9595 H       1  UNL111      0.0396
     32 H         118.8499  156.5952  146.3500 H       1  UNL111      0.1114
     33 H         120.5971  151.2716  148.7853 H       1  UNL111      0.0613
     34 H         121.0213  150.1577  147.4853 H       1  UNL111      0.0613
     35 H         119.7624  156.1818  148.6193 H       1  UNL111      0.0481
     36 H         118.6987  154.8748  148.1315 H       1  UNL111      0.0481
     37 H         121.0507  150.7748  144.9154 H       1  UNL111      0.0738
     38 H         122.4250  151.3267  143.9618 H       1  UNL111      0.0738
     39 H         123.8456  153.2787  145.4908 H       1  UNL111      0.0667
     40 H         124.4811  151.6526  145.0724 H       1  UNL111      0.0667
     41 H         124.5170  152.2039  146.7720 H       1  UNL111      0.0667
     42 H         118.2500  149.9034  147.9956 H       1  UNL111      0.0939
     43 H         116.0725  150.6959  147.1189 H       1  UNL111      0.1139
@<TRIPOS>UNITY_ATOM_ATTR
4 1
charge 1
@<TRIPOS>BOND
     1     1     7    1
     2     1    17    1
     3     2    12    1
     4     3    20    1
     5     4     8    1
     6     4    15    1
     7     4    18    1
     8     5     6    1
     9     5     7    1
    10     5     9    1
    11     5    10    1
    12     6     8    1
    13     6    11    1
    14     7    12    1
    15     8    13    1
    16     9    15    1
    17    10    16   ar
    18    10    17   ar
    19    11    14    1
    20    12    14    1
    21    13    16    1
    22    16    19   ar
    23    17    20   ar
    24    19    21   ar
    25    20    21   ar
    26     2    22    1
    27     3    23    1
    28     4    24    1
    29     6    25    1
    30     7    26    1
    31     8    27    1
    32     9    28    1
    33     9    29    1
    34    11    30    1
    35    11    31    1
    36    12    32    1
    37    13    33    1
    38    13    34    1
    39    14    35    1
    40    14    36    1
    41    15    37    1
    42    15    38    1
    43    18    39    1
    44    18    40    1
    45    18    41    1
    46    19    42    1
    47    21    43    1
@<TRIPOS>MOLECULE
589081
 21 22 0 0 0
SMALL
GASTEIGER

@<TRIPOS>ATOM
      1 O         117.6177  152.1603  148.0605 O.2     1  UNL1111    -0.4113
      2 N         119.1834  153.8176  145.7857 N.2     1  UNL1111    -0.3229
      3 C         120.4220  153.5564  146.0845 C.2     1  UNL1111     0.0219
      4 C         120.7873  152.1506  146.3220 C.2     1  UNL1111    -0.0148
      5 C         118.5420  152.4703  145.8219 C.3     1  UNL1111     0.1099
      6 C         119.6385  151.5096  146.1551 C.2     1  UNL1111    -0.0330
      7 C         121.5204  154.5409  146.2041 C.3     1  UNL1111    -0.0455
      8 C         122.1153  151.7527  146.6495 C.3     1  UNL1111    -0.0651
      9 C         117.4351  152.4826  146.8841 C.2     1  UNL1111     0.1109
     10 C         122.7543  154.1050  146.5138 C.3     1  UNL1111    -0.0760
     11 C         123.0625  152.7008  146.7394 C.3     1  UNL1111    -0.0809
     12 C         116.0653  152.8862  146.4026 C.3     1  UNL1111     0.0164
     13 H         118.1151  152.2311  144.8421 H       1  UNL1111     0.1351
     14 H         119.4904  150.4459  146.2619 H       1  UNL1111     0.0999
     15 H         121.2846  155.5836  146.0398 H       1  UNL1111     0.1023
     16 H         122.3367  150.7059  146.8217 H       1  UNL1111     0.0935
     17 H         123.5737  154.8118  146.6102 H       1  UNL1111     0.0895
     18 H         124.0868  152.4400  146.9896 H       1  UNL1111     0.0883
     19 H         115.4002  153.0293  147.2588 H       1  UNL1111     0.0607
     20 H         115.6620  152.0943  145.7660 H       1  UNL1111     0.0607
     21 H         116.1249  153.8236  145.8450 H       1  UNL1111     0.0607
@<TRIPOS>BOND
     1     1     9    2
     2     2     3    2
     3     2     5    1
     4     3     4   ar
     5     3     7   ar
     6     4     6    2
     7     4     8   ar
     8     5     6    1
     9     5     9    1
    10     7    10   ar
    11     8    11   ar
    12     9    12    1
    13    10    11   ar
    14     5    13    1
    15     6    14    1
    16     7    15    1
    17     8    16    1
    18    10    17    1
    19    11    18    1
    20    12    19    1
    21    12    20    1
    22    12    21    1
@<TRIPOS>MOLECULE
625177
 46 50 0 0 0
SMALL
GASTEIGER

@<TRIPOS>ATOM
      1 O         118.5804  151.9520  147.2332 O.2     1  UNL111     -0.5297
      2 O         119.2019  149.5101  146.0109 O.2     1  UNL111     -0.4040
      3 O         116.3695  153.3135  145.8312 O.3     1  UNL111     -0.4569
      4 O         116.5471  154.5052  147.8381 O.2     1  UNL111     -0.3381
      5 N         123.0425  154.5376  147.1987 N.4     1  UNL111      0.4270
      6 C         120.8905  152.5943  147.0756 C.3     1  UNL111      0.0598
      7 C         122.2537  152.3157  146.4357 C.3     1  UNL111     -0.0136
      8 C         122.8137  153.6776  145.9351 C.3     1  UNL111     -0.0250
      9 C         119.9316  151.4165  147.3364 C.3     1  UNL111      0.1356
     10 C         121.0885  153.4700  148.3336 C.3     1  UNL111     -0.0250
     11 C         120.0215  153.3217  146.1119 C.3     1  UNL111      0.0258
     12 C         122.1811  151.2384  145.3460 C.3     1  UNL111     -0.0274
     13 C         121.9007  154.3930  144.8870 C.3     1  UNL111     -0.0224
     14 C         121.8026  154.7867  148.0334 C.3     1  UNL111     -0.0366
     15 C         120.4275  154.2163  145.1375 C.3     1  UNL111     -0.0424
     16 C         121.5390  149.9698  145.8951 C.3     1  UNL111      0.0289
     17 C         120.1242  150.2483  146.3531 C.2     1  UNL111      0.1275
     18 C         118.7053  152.9647  146.3143 C.3     1  UNL111      0.1169
     19 C         123.7950  155.8187  146.9365 C.3     1  UNL111     -0.0445
     20 C         119.4233  154.8282  144.3830 C.3     1  UNL111     -0.0561
     21 C         117.7078  153.6075  145.6187 C.3     1  UNL111      0.1323
     22 C         118.0650  154.5362  144.6340 C.3     1  UNL111     -0.0054
     23 C         115.9240  153.7932  147.0584 C.2     1  UNL111      0.2266
     24 C         114.5099  153.3413  147.2711 C.3     1  UNL111      0.0573
     25 H         123.6784  153.9926  147.7970 H       1  UNL111      0.1324
     26 H         122.9305  151.9227  147.2092 H       1  UNL111      0.0627
     27 H         123.8131  153.5335  145.5075 H       1  UNL111      0.0835
     28 H         120.0671  151.0078  148.3448 H       1  UNL111      0.1606
     29 H         121.6743  152.9051  149.0711 H       1  UNL111      0.0545
     30 H         120.1308  153.6995  148.8187 H       1  UNL111      0.0545
     31 H         123.1928  151.0101  144.9907 H       1  UNL111      0.0427
     32 H         121.6124  151.5866  144.4764 H       1  UNL111      0.0427
     33 H         122.1141  153.9491  143.9058 H       1  UNL111      0.0613
     34 H         122.1381  155.4576  144.8086 H       1  UNL111      0.0613
     35 H         121.1681  155.4966  147.4936 H       1  UNL111      0.0738
     36 H         122.1324  155.2588  148.9654 H       1  UNL111      0.0738
     37 H         122.1054  149.5676  146.7416 H       1  UNL111      0.0688
     38 H         121.5114  149.2047  145.1117 H       1  UNL111      0.0688
     39 H         123.1346  156.5279  146.4334 H       1  UNL111      0.0667
     40 H         124.6678  155.5823  146.3230 H       1  UNL111      0.0667
     41 H         124.1168  156.2175  147.9025 H       1  UNL111      0.0667
     42 H         119.6706  155.5289  143.5872 H       1  UNL111      0.0940
     43 H         117.2901  155.0250  144.0474 H       1  UNL111      0.1154
     44 H         114.4458  152.2556  147.1612 H       1  UNL111      0.0797
     45 H         113.8512  153.8403  146.5566 H       1  UNL111      0.0797
     46 H         114.1965  153.6008  148.2862 H       1  UNL111      0.0797
@<TRIPOS>UNITY_ATOM_ATTR
5 1
charge 1
@<TRIPOS>BOND
     1     1     9    1
     2     1    18    1
     3     2    17    2
     4     3    21    1
     5     3    23    1
     6     4    23    2
     7     5     8    1
     8     5    14    1
     9     5    19    1
    10     6     7    1
    11     6     9    1
    12     6    10    1
    13     6    11    1
    14     7     8    1
    15     7    12    1
    16     8    13    1
    17     9    17    1
    18    10    14    1
    19    11    15   ar
    20    11    18   ar
    21    12    16    1
    22    13    15    1
    23    15    20   ar
    24    16    17    1
    25    18    21   ar
    26    20    22   ar
    27    21    22   ar
    28    23    24    1
    29     5    25    1
    30     7    26    1
    31     8    27    1
    32     9    28    1
    33    10    29    1
    34    10    30    1
    35    12    31    1
    36    12    32    1
    37    13    33    1
    38    13    34    1
    39    14    35    1
    40    14    36    1
    41    16    37    1
    42    16    38    1
    43    19    39    1
    44    19    40    1
    45    19    41    1
    46    20    42    1
    47    22    43    1
    48    24    44    1
    49    24    45    1
    50    24    46    1
@<TRIPOS>MOLECULE
4287520
 25 25 0 0 0
SMALL
GASTEIGER

@<TRIPOS>ATOM
      1 O         120.4958  154.8872  146.4242 O.2     1  UNL111     -0.4070
      2 N         125.1067  152.9533  146.3766 N.4     1  UNL111      0.4360
      3 N         117.1029  151.5304  146.4224 N.pl3   1  UNL111     -0.3035
      4 C         122.6875  153.2780  146.4030 C.3     1  UNL111     -0.0360
      5 C         121.2988  152.6288  146.4194 C.3     1  UNL111      0.0278
      6 C         123.8017  152.2474  146.3942 C.3     1  UNL111     -0.0323
      7 C         120.2107  153.6913  146.4205 C.2     1  UNL111      0.1211
      8 C         118.7843  153.2724  146.4155 C.3     1  UNL111      0.0399
      9 C         117.7780  154.2418  146.3958 C.3     1  UNL111     -0.0430
     10 C         118.3930  151.9402  146.4289 C.3     1  UNL111      0.0042
     11 C         116.4410  153.8483  146.3890 C.3     1  UNL111     -0.0539
     12 C         116.1546  152.4934  146.4026 C.3     1  UNL111     -0.0237
     13 H         125.8936  152.2909  146.3694 H       1  UNL111      0.1369
     14 H         125.2226  153.5582  147.2016 H       1  UNL111      0.1369
     15 H         125.2032  153.5529  145.5453 H       1  UNL111      0.1369
     16 H         122.7969  153.9300  147.2797 H       1  UNL111      0.0502
     17 H         122.7784  153.9249  145.5206 H       1  UNL111      0.0502
     18 H         121.1944  152.0141  147.3200 H       1  UNL111      0.0707
     19 H         121.1802  152.0011  145.5296 H       1  UNL111      0.0707
     20 H         123.7903  151.6218  147.2913 H       1  UNL111      0.0725
     21 H         123.7699  151.6153  145.5021 H       1  UNL111      0.0725
     22 H         118.0251  155.3015  146.3852 H       1  UNL111      0.0981
     23 H         119.1012  151.1191  146.4461 H       1  UNL111      0.1420
     24 H         115.6417  154.5822  146.3734 H       1  UNL111      0.0986
     25 H         115.1276  152.1367  146.3979 H       1  UNL111      0.1342
@<TRIPOS>UNITY_ATOM_ATTR
2 1
charge 1
@<TRIPOS>BOND
     1     1     7    2
     2     2     6    1
     3     3    10   ar
     4     3    12   ar
     5     4     5    1
     6     4     6    1
     7     5     7    1
     8     7     8    1
     9     8     9   ar
    10     8    10   ar
    11     9    11   ar
    12    11    12   ar
    13     2    13    1
    14     2    14    1
    15     2    15    1
    16     4    16    1
    17     4    17    1
    18     5    18    1
    19     5    19    1
    20     6    20    1
    21     6    21    1
    22     9    22    1
    23    10    23    1
    24    11    24    1
    25    12    25    1
@<TRIPOS>MOLECULE
5459823
 39 43 0 0 0
SMALL
GASTEIGER

@<TRIPOS>ATOM
      1 O         121.8110  153.4812  147.7050 O.2     1  UNL111     -0.5288
      2 O         122.4986  155.8845  146.2479 O.2     1  UNL111     -0.3926
      3 O         123.4120  151.1398  146.9929 O.2     1  UNL111     -0.5485
      4 N         116.7234  153.0028  146.9045 N.4     1  UNL111      0.4275
      5 C         119.5100  153.8078  147.0697 C.3     1  UNL111      0.0659
      6 C         118.5587  154.4655  146.0653 C.3     1  UNL111      0.0022
      7 C         117.5359  153.3638  145.6357 C.3     1  UNL111     -0.0200
      8 C         118.7258  153.4243  148.3440 C.3     1  UNL111     -0.0236
      9 C         120.8355  154.5235  147.3790 C.3     1  UNL111      0.1435
     10 C         120.1070  152.5766  146.4818 C.3     1  UNL111      0.0263
     11 C         118.1927  152.1110  144.9710 C.3     1  UNL111     -0.0212
     12 C         117.5530  152.4844  148.0603 C.3     1  UNL111     -0.0361
     13 C         119.5189  151.7260  145.5655 C.3     1  UNL111     -0.0421
     14 C         119.2747  155.1491  144.9331 C.2     1  UNL111     -0.0705
     15 C         121.4002  152.4210  146.9351 C.3     1  UNL111      0.1091
     16 C         121.3853  155.3648  146.2165 C.2     1  UNL111      0.1527
     17 C         120.5475  155.5627  145.0034 C.2     1  UNL111     -0.0023
     18 C         115.5326  152.1166  146.6346 C.3     1  UNL111     -0.0442
     19 C         120.2641  150.6117  145.1724 C.3     1  UNL111     -0.0572
     20 C         122.1384  151.3256  146.5633 C.3     1  UNL111      0.0923
     21 C         121.5628  150.4039  145.6880 C.3     1  UNL111     -0.0139
     22 H         123.6630  151.9322  147.5054 H       1  UNL111      0.3393
     23 H         116.3063  153.8861  147.2304 H       1  UNL111      0.1328
     24 H         117.9988  155.2668  146.5702 H       1  UNL111      0.0728
     25 H         116.7982  153.7912  144.9452 H       1  UNL111      0.0855
     26 H         118.3444  154.3396  148.8159 H       1  UNL111      0.0548
     27 H         119.3779  152.9483  149.0878 H       1  UNL111      0.0548
     28 H         120.7343  155.1912  148.2429 H       1  UNL111      0.1634
     29 H         118.3757  152.3571  143.9167 H       1  UNL111      0.0615
     30 H         117.5179  151.2505  144.9818 H       1  UNL111      0.0615
     31 H         117.8793  151.4693  147.8130 H       1  UNL111      0.0739
     32 H         116.8917  152.4312  148.9321 H       1  UNL111      0.0739
     33 H         118.7166  155.3715  144.0241 H       1  UNL111      0.0849
     34 H         121.0320  156.0857  144.1834 H       1  UNL111      0.1146
     35 H         115.8785  151.1034  146.4209 H       1  UNL111      0.0667
     36 H         114.9800  152.5362  145.7904 H       1  UNL111      0.0667
     37 H         114.9048  152.1240  147.5299 H       1  UNL111      0.0667
     38 H         119.8717  149.9032  144.4448 H       1  UNL111      0.0939
     39 H         122.1412  149.5387  145.3690 H       1  UNL111      0.1139
@<TRIPOS>UNITY_ATOM_ATTR
4 1
charge 1
@<TRIPOS>BOND
     1     1     9    1
     2     1    15    1
     3     2    16    2
     4     3    20    1
     5     4     7    1
     6     4    12    1
     7     4    18    1
     8     5     6    1
     9     5     8    1
    10     5     9    1
    11     5    10    1
    12     6     7    1
    13     6    14    1
    14     7    11    1
    15     8    12    1
    16     9    16    1
    17    10    13   ar
    18    10    15   ar
    19    11    13    1
    20    13    19   ar
    21    14    17    2
    22    15    20   ar
    23    16    17    1
    24    19    21   ar
    25    20    21   ar
    26     3    22    1
    27     4    23    1
    28     6    24    1
    29     7    25    1
    30     8    26    1
    31     8    27    1
    32     9    28    1
    33    11    29    1
    34    11    30    1
    35    12    31    1
    36    12    32    1
    37    14    33    1
    38    17    34    1
    39    18    35    1
    40    18    36    1
    41    18    37    1
    42    19    38    1
    43    21    39    1
@<TRIPOS>MOLECULE
44828689
 15 15 0 0 0
SMALL
GASTEIGER

@<TRIPOS>ATOM
      1 CL        123.5826  153.1615  146.4079 Cl      1  UNL1111    -0.0763
      2 O         117.1497  151.8951  146.4079 O.2     1  UNL1111    -0.3991
      3 N         119.7632  154.3009  146.4079 N.pl3   1  UNL1111    -0.2516
      4 N         121.3089  151.9094  146.4082 N.pl3   1  UNL1111    -0.2473
      5 C         119.1918  153.0664  146.4080 C.3     1  UNL1111     0.1052
      6 C         117.7117  152.9880  146.4080 C.2     1  UNL1111     0.1427
      7 C         119.9493  151.9003  146.4082 C.3     1  UNL1111     0.0426
      8 C         116.9461  154.2838  146.4081 C.3     1  UNL1111     0.0243
      9 C         121.1225  154.3036  146.4078 C.3     1  UNL1111     0.0457
     10 C         121.8727  153.1366  146.4080 C.3     1  UNL1111     0.1117
     11 H         119.4860  150.9181  146.4083 H       1  UNL1111     0.1549
     12 H         115.8732  154.0685  146.4082 H       1  UNL1111     0.0631
     13 H         117.1799  154.8599  145.5090 H       1  UNL1111     0.0631
     14 H         117.1802  154.8600  147.3071 H       1  UNL1111     0.0631
     15 H         121.5932  155.2806  146.4077 H       1  UNL1111     0.1579
@<TRIPOS>BOND
     1     1    10    1
     2     2     6    2
     3     3     5   ar
     4     3     9   ar
     5     4     7   ar
     6     4    10   ar
     7     5     6    1
     8     5     7   ar
     9     6     8    1
    10     9    10   ar
    11     7    11    1
    12     8    12    1
    13     8    13    1
    14     8    14    1
    15     9    15    1
@<TRIPOS>MOLECULE
71587704
 42 46 0 0 0
SMALL
GASTEIGER

@<TRIPOS>ATOM
      1 O         118.0639  152.4743  147.8324 O.2     1  UNL111     -0.5305
      2 O         120.2155  151.9765  144.0845 O.3     1  UNL111     -0.4470
      3 O         117.8676  150.1469  146.3167 O.2     1  UNL111     -0.4019
      4 O         115.9119  154.2951  147.0652 O.2     1  UNL111     -0.5485
      5 N         122.8351  154.2441  146.8355 N.4     1  UNL111      0.4277
      6 C         120.3625  152.7097  147.1419 C.3     1  UNL111      0.0669
      7 C         121.4506  152.2606  146.1621 C.3     1  UNL111      0.0112
      8 C         122.1294  153.5539  145.6298 C.3     1  UNL111     -0.0175
      9 C         119.2693  151.7035  147.5464 C.3     1  UNL111      0.1384
     10 C         121.0453  153.3514  148.3738 C.3     1  UNL111     -0.0236
     11 C         119.4625  153.7124  146.5154 C.3     1  UNL111      0.0262
     12 C         120.9605  151.2927  145.0712 C.3     1  UNL111      0.0374
     13 C         121.1770  154.5982  144.9516 C.3     1  UNL111     -0.0210
     14 C         121.9290  154.5454  148.0127 C.3     1  UNL111     -0.0361
     15 C         119.8020  154.6517  145.5594 C.3     1  UNL111     -0.0422
     16 C         120.1578  150.1421  145.6676 C.3     1  UNL111      0.0539
     17 C         118.9806  150.6510  146.4661 C.2     1  UNL111      0.1361
     18 C         118.1800  153.5577  146.9971 C.3     1  UNL111      0.1086
     19 C         124.1286  153.5865  147.2435 C.3     1  UNL111     -0.0442
     20 C         118.7938  155.5265  145.1471 C.3     1  UNL111     -0.0572
     21 C         117.1833  154.4170  146.6057 C.3     1  UNL111      0.0922
     22 C         117.4927  155.4193  145.6856 C.3     1  UNL111     -0.0139
     23 H         119.7789  151.3318  143.4920 H       1  UNL111      0.2368
     24 H         115.8758  153.4715  147.5881 H       1  UNL111      0.3393
     25 H         123.1292  155.1677  146.4860 H       1  UNL111      0.1327
     26 H         122.1872  151.6759  146.7301 H       1  UNL111      0.0755
     27 H         122.9359  153.3134  144.9273 H       1  UNL111      0.0856
     28 H         119.5497  151.1550  148.4536 H       1  UNL111      0.1610
     29 H         121.6539  152.5922  148.8824 H       1  UNL111      0.0547
     30 H         120.3034  153.6846  149.1114 H       1  UNL111      0.0547
     31 H         121.8372  150.8771  144.5602 H       1  UNL111      0.1030
     32 H         121.0677  154.3303  143.8939 H       1  UNL111      0.0615
     33 H         121.6272  155.5979  144.9765 H       1  UNL111      0.0615
     34 H         121.3346  155.4225  147.7371 H       1  UNL111      0.0738
     35 H         122.5621  154.8399  148.8569 H       1  UNL111      0.0738
     36 H         120.7782  149.5305  146.3314 H       1  UNL111      0.0816
     37 H         119.7720  149.5000  144.8677 H       1  UNL111      0.0816
     38 H         123.9113  152.6327  147.7277 H       1  UNL111      0.0667
     39 H         124.6427  154.2598  147.9348 H       1  UNL111      0.0667
     40 H         124.7371  153.4449  146.3470 H       1  UNL111      0.0667
     41 H         118.9850  156.2805  144.3858 H       1  UNL111      0.0939
     42 H         116.7098  156.0971  145.3513 H       1  UNL111      0.1139
@<TRIPOS>UNITY_ATOM_ATTR
5 1
charge 1
@<TRIPOS>BOND
     1     1     9    1
     2     1    18    1
     3     2    12    1
     4     3    17    2
     5     4    21    1
     6     5     8    1
     7     5    14    1
     8     5    19    1
     9     6     7    1
    10     6     9    1
    11     6    10    1
    12     6    11    1
    13     7     8    1
    14     7    12    1
    15     8    13    1
    16     9    17    1
    17    10    14    1
    18    11    15   ar
    19    11    18   ar
    20    12    16    1
    21    13    15    1
    22    15    20   ar
    23    16    17    1
    24    18    21   ar
    25    20    22   ar
    26    21    22   ar
    27     2    23    1
    28     4    24    1
    29     5    25    1
    30     7    26    1
    31     8    27    1
    32     9    28    1
    33    10    29    1
    34    10    30    1
    35    12    31    1
    36    13    32    1
    37    13    33    1
    38    14    34    1
    39    14    35    1
    40    16    36    1
    41    16    37    1
    42    19    38    1
    43    19    39    1
    44    19    40    1
    45    20    41    1
    46    22    42    1
@<TRIPOS>MOLECULE
131698385
 41 45 0 0 0
SMALL
GASTEIGER

@<TRIPOS>ATOM
      1 O         121.9262  153.6393  147.7322 O.2     1  UNL1111    -0.5309
      2 O         116.0681  151.6114  146.3805 O.co2   1  UNL1111    -0.7568
      3 O         122.5320  155.8504  146.1430 O.2     1  UNL1111    -0.4040
      4 O         123.7528  151.4531  147.1020 O.2     1  UNL1111    -0.5485
      5 N         116.8401  152.6962  146.7390 N.3     1  UNL1111     0.4018
      6 C         119.6192  153.7456  147.0133 C.3     1  UNL1111     0.0593
      7 C         118.6613  154.2884  145.9502 C.3     1  UNL1111    -0.0164
      8 C         117.7280  153.1123  145.5414 C.3     1  UNL1111    -0.0435
      9 C         118.8070  153.3251  148.2598 C.3     1  UNL1111    -0.0278
     10 C         120.8645  154.5795  147.3726 C.3     1  UNL1111     0.1354
     11 C         120.3469  152.5697  146.4721 C.3     1  UNL1111     0.0246
     12 C         119.3945  154.9456  144.7748 C.3     1  UNL1111    -0.0276
     13 C         117.6976  152.3181  147.9362 C.3     1  UNL1111    -0.0551
     14 C         118.5097  151.8905  144.9386 C.3     1  UNL1111    -0.0252
     15 C         119.8648  151.6534  145.5579 C.3     1  UNL1111    -0.0428
     16 C         120.3157  156.0457  145.2867 C.3     1  UNL1111     0.0289
     17 C         121.3573  155.4885  146.2320 C.2     1  UNL1111     0.1274
     18 C         121.6335  152.5386  146.9641 C.3     1  UNL1111     0.1084
     19 C         115.8699  153.7853  147.1188 C.3     1  UNL1111    -0.0630
     20 C         120.7190  150.6055  145.2051 C.3     1  UNL1111    -0.0573
     21 C         122.4799  151.5095  146.6297 C.3     1  UNL1111     0.0922
     22 C         122.0178  150.5256  145.7551 C.3     1  UNL1111    -0.0139
     23 H         123.8861  152.2693  147.6208 H       1  UNL1111     0.3393
     24 H         118.0662  155.0904  146.4018 H       1  UNL1111     0.0625
     25 H         117.0019  153.4482  144.7895 H       1  UNL1111     0.0802
     26 H         118.3634  154.2205  148.7127 H       1  UNL1111     0.0543
     27 H         119.4568  152.8872  149.0287 H       1  UNL1111     0.0543
     28 H         120.6718  155.2298  148.2343 H       1  UNL1111     0.1606
     29 H         118.6621  155.3776  144.0829 H       1  UNL1111     0.0427
     30 H         119.9785  154.2170  144.2019 H       1  UNL1111     0.0427
     31 H         118.1104  151.3279  147.7133 H       1  UNL1111     0.0705
     32 H         117.0139  152.1990  148.7848 H       1  UNL1111     0.0705
     33 H         118.6761  152.0978  143.8735 H       1  UNL1111     0.0611
     34 H         117.9239  150.9679  144.9977 H       1  UNL1111     0.0611
     35 H         119.7525  156.8224  145.8157 H       1  UNL1111     0.0688
     36 H         120.8264  156.5162  144.4396 H       1  UNL1111     0.0688
     37 H         115.3190  154.0678  146.2177 H       1  UNL1111     0.0633
     38 H         116.4052  154.6341  147.5422 H       1  UNL1111     0.0633
     39 H         115.1848  153.3667  147.8626 H       1  UNL1111     0.0633
     40 H         120.3963  149.8490  144.4927 H       1  UNL1111     0.0939
     41 H         122.6757  149.7081  145.4708 H       1  UNL1111     0.1139
@<TRIPOS>UNITY_ATOM_ATTR
2 1
charge -1
5 1
charge 1
@<TRIPOS>BOND
     1     1    10    1
     2     1    18    1
     3     2     5    1
     4     3    17    2
     5     4    21    1
     6     5     8    1
     7     5    13    1
     8     5    19    1
     9     6     7    1
    10     6     9    1
    11     6    10    1
    12     6    11    1
    13     7     8    1
    14     7    12    1
    15     8    14    1
    16     9    13    1
    17    10    17    1
    18    11    15   ar
    19    11    18   ar
    20    12    16    1
    21    14    15    1
    22    15    20   ar
    23    16    17    1
    24    18    21   ar
    25    20    22   ar
    26    21    22   ar
    27     4    23    1
    28     7    24    1
    29     8    25    1
    30     9    26    1
    31     9    27    1
    32    10    28    1
    33    12    29    1
    34    12    30    1
    35    13    31    1
    36    13    32    1
    37    14    33    1
    38    14    34    1
    39    16    35    1
    40    16    36    1
    41    19    37    1
    42    19    38    1
    43    19    39    1
    44    20    40    1
    45    22    41    1
@<TRIPOS>MOLECULE
67574
 17 17 0 0 0
SMALL
GASTEIGER

@<TRIPOS>ATOM
      1 CL        121.1370  150.6506  146.4102 Cl      1  UNL1111    -0.1207
      2 F         121.6178  155.0973  146.4053 F       1  UNL1111    -0.1880
      3 F         122.2761  153.3442  147.4946 F       1  UNL1111    -0.1880
      4 F         122.2712  153.3442  145.3132 F       1  UNL1111    -0.1880
      5 N         116.6938  154.5536  146.4051 N.pl3   1  UNL1111    -0.4125
      6 C         120.1495  153.2057  146.4084 C.ar    1  UNL1111     0.1155
      7 C         119.0631  154.1044  146.4083 C.ar    1  UNL1111    -0.0070
      8 C         117.7405  153.6550  146.4098 C.ar    1  UNL1111    -0.0178
      9 C         119.8804  151.8337  146.4099 C.ar    1  UNL1111     0.0630
     10 C         121.5571  153.7325  146.4055 C.3     1  UNL1111     0.3730
     11 C         117.5000  152.2825  146.4100 C.ar    1  UNL1111    -0.0502
     12 C         118.5612  151.3747  146.4107 C.ar    1  UNL1111    -0.0359
     13 H         116.8613  155.5507  146.4104 H       1  UNL1111     0.1723
     14 H         115.7350  154.2325  146.4107 H       1  UNL1111     0.1723
     15 H         119.2567  155.1766  146.4066 H       1  UNL1111     0.1104
     16 H         116.4809  151.9041  146.4096 H       1  UNL1111     0.1001
     17 H         118.3488  150.3081  146.4113 H       1  UNL1111     0.1016
@<TRIPOS>BOND
     1     1     9    1
     2     2    10    1
     3     3    10    1
     4     4    10    1
     5     5     8    1
     6     6     7   ar
     7     6     9   ar
     8     6    10    1
     9     7     8   ar
    10     8    11   ar
    11     9    12   ar
    12    11    12   ar
    13     5    13    1
    14     5    14    1
    15     7    15    1
    16    11    16    1
    17    12    17    1
