@<TRIPOS>MOLECULE
10101
 40 41 0 0 0
SMALL
GASTEIGER

@<TRIPOS>ATOM
      1 O         121.6050  151.0902  145.9941 O.2     1  UNL111     -0.4184
      2 O         115.9124  155.0357  147.6544 O.2     1  UNL111     -0.5646
      3 N         123.0397  154.4340  146.3722 N.4     1  UNL111      0.4253
      4 C         120.3616  153.1263  146.3831 C.3     1  UNL111      0.0584
      5 C         121.0597  153.6491  145.0902 C.3     1  UNL111     -0.0240
      6 C         120.9671  153.8803  147.5933 C.3     1  UNL111     -0.0240
      7 C         122.5836  153.6943  145.1435 C.3     1  UNL111     -0.0372
      8 C         122.4910  153.8252  147.6319 C.3     1  UNL111     -0.0372
      9 C         118.8429  153.3302  146.2013 C.3     1  UNL111     -0.0336
     10 C         120.6584  151.6155  146.5865 C.2     1  UNL111      0.0926
     11 C         119.8871  150.8499  147.6557 C.3     1  UNL111      0.0135
     12 C         124.5435  154.5329  146.4169 C.3     1  UNL111     -0.0457
     13 C         118.0639  154.1322  147.0563 C.3     1  UNL111     -0.0223
     14 C         118.1817  152.6684  145.1423 C.3     1  UNL111     -0.0709
     15 C         119.7743  149.3746  147.3147 C.3     1  UNL111     -0.0500
     16 C         116.6907  154.2662  146.8420 C.3     1  UNL111      0.0343
     17 C         116.8076  152.8118  144.9393 C.3     1  UNL111     -0.0692
     18 C         116.0610  153.6160  145.7910 C.3     1  UNL111     -0.0324
     19 H         116.4437  155.4071  148.3757 H       1  UNL111      0.3342
     20 H         122.6926  155.4005  146.3005 H       1  UNL111      0.1303
     21 H         120.6984  154.6655  144.8764 H       1  UNL111      0.0555
     22 H         120.7816  153.0403  144.2206 H       1  UNL111      0.0555
     23 H         120.5781  153.4788  148.5373 H       1  UNL111      0.0555
     24 H         120.6761  154.9389  147.5600 H       1  UNL111      0.0555
     25 H         123.0534  152.7076  145.1519 H       1  UNL111      0.0737
     26 H         122.9675  154.2457  144.2776 H       1  UNL111      0.0737
     27 H         122.8660  154.4226  148.4701 H       1  UNL111      0.0737
     28 H         122.8802  152.8055  147.7192 H       1  UNL111      0.0737
     29 H         118.8802  151.2567  147.7704 H       1  UNL111      0.0642
     30 H         120.4115  150.9799  148.6080 H       1  UNL111      0.0642
     31 H         124.9591  153.5246  146.4948 H       1  UNL111      0.0663
     32 H         124.8158  155.1379  147.2857 H       1  UNL111      0.0663
     33 H         124.8776  155.0267  145.5006 H       1  UNL111      0.0663
     34 H         118.5006  154.6558  147.8993 H       1  UNL111      0.1128
     35 H         118.7238  152.0171  144.4572 H       1  UNL111      0.0909
     36 H         119.2776  149.2350  146.3487 H       1  UNL111      0.0306
     37 H         119.1930  148.8504  148.0794 H       1  UNL111      0.0306
     38 H         120.7607  148.9035  147.2555 H       1  UNL111      0.0306
     39 H         116.3172  152.2928  144.1185 H       1  UNL111      0.0911
     40 H         114.9905  153.7309  145.6404 H       1  UNL111      0.1100
@<TRIPOS>UNITY_ATOM_ATTR
3 1
charge 1
@<TRIPOS>BOND
     1     1    10    2
     2     2    16    1
     3     3     7    1
     4     3     8    1
     5     3    12    1
     6     4     5    1
     7     4     6    1
     8     4     9    1
     9     4    10    1
    10     5     7    1
    11     6     8    1
    12     9    13   ar
    13     9    14   ar
    14    10    11    1
    15    11    15    1
    16    13    16   ar
    17    14    17   ar
    18    16    18   ar
    19    17    18   ar
    20     2    19    1
    21     3    20    1
    22     5    21    1
    23     5    22    1
    24     6    23    1
    25     6    24    1
    26     7    25    1
    27     7    26    1
    28     8    27    1
    29     8    28    1
    30    11    29    1
    31    11    30    1
    32    12    31    1
    33    12    32    1
    34    12    33    1
    35    13    34    1
    36    14    35    1
    37    15    36    1
    38    15    37    1
    39    15    38    1
    40    17    39    1
    41    18    40    1
@<TRIPOS>MOLECULE
71749670
 22 23 0 0 0
SMALL
GASTEIGER

@<TRIPOS>ATOM
      1 O         118.1559  155.8504  147.5245 O.2     1  UNL111     -0.4115
      2 O         122.2040  150.2975  145.3452 O.co2   1  UNL111     -0.8036
      3 N         116.6274  151.9889  145.3950 N.4     1  UNL111      0.4595
      4 C         119.2702  153.8529  146.7094 C.3     1  UNL111      0.1139
      5 C         118.2132  153.0298  147.4133 C.3     1  UNL111      0.0805
      6 C         118.7609  153.7503  145.2862 C.3     1  UNL111      0.0805
      7 C         117.0826  152.1815  146.7927 C.3     1  UNL111      0.0663
      8 C         117.6165  152.8727  144.7328 C.3     1  UNL111      0.0663
      9 C         120.5949  153.1589  146.8849 C.2     1  UNL111     -0.0086
     10 C         119.1944  155.3196  147.1345 C.2     1  UNL111      0.1225
     11 C         120.3436  156.1677  146.9129 C.3     1  UNL111      0.0819
     12 C         116.6817  150.6114  144.9495 C.3     1  UNL111      0.1021
     13 C         120.9124  152.1066  146.0161 C.2     1  UNL111     -0.0433
     14 C         121.4263  153.3735  147.9797 C.2     1  UNL111     -0.0075
     15 C         121.5213  157.0018  146.6935 C.3     1  UNL111     -0.0331
     16 C         122.0048  151.2574  146.1514 C.2     1  UNL111     -0.0987
     17 C         122.5586  152.5867  148.1502 C.2     1  UNL111     -0.0114
     18 C         122.8248  151.5497  147.2505 C.2     1  UNL111     -0.0393
     19 H         115.6855  152.3759  145.2804 H       1  UNL111      0.1771
     20 H         122.2377  156.8846  147.5118 H       1  UNL111      0.0355
     21 H         121.2437  158.0580  146.6325 H       1  UNL111      0.0355
     22 H         122.0225  156.7267  145.7610 H       1  UNL111      0.0355
@<TRIPOS>UNITY_ATOM_ATTR
2 1
charge -1
3 1
charge 1
@<TRIPOS>BOND
     1     1    10    2
     2     2    16    1
     3     3     7    1
     4     3     8    1
     5     3    12    1
     6     4     5    1
     7     4     6    1
     8     4     9    1
     9     4    10    1
    10     5     7    1
    11     6     8    1
    12     9    13    2
    13     9    14    1
    14    10    11    1
    15    11    15    1
    16    13    16    1
    17    14    17    2
    18    16    18    2
    19    17    18    1
    20     3    19    1
    21    15    20    1
    22    15    21    1
    23    15    22    1
@<TRIPOS>MOLECULE
23276586
 57 58 0 0 0
SMALL
GASTEIGER

@<TRIPOS>ATOM
      1 O         124.5974  153.2705  145.6365 O.2     1  UNL111     -0.4184
      2 O         117.6782  154.6423  146.8559 O.3     1  UNL111     -0.4741
      3 O         117.6198  152.3357  147.2378 O.2     1  UNL111     -0.3365
      4 N         121.4976  150.0250  146.9638 N.4     1  UNL111      0.4253
      5 C         122.2965  152.8068  146.2282 C.3     1  UNL111      0.0585
      6 C         121.7045  151.7894  145.2126 C.3     1  UNL111     -0.0240
      7 C         122.9592  151.9625  147.3610 C.3     1  UNL111     -0.0240
      8 C         120.8007  150.7230  145.8312 C.3     1  UNL111     -0.0372
      9 C         121.9892  150.9903  148.0109 C.3     1  UNL111     -0.0372
     10 C         121.2956  153.7968  146.8475 C.3     1  UNL111     -0.0324
     11 C         123.4142  153.5791  145.4764 C.2     1  UNL111      0.0926
     12 C         123.0013  154.6571  144.4785 C.3     1  UNL111      0.0135
     13 C         120.6165  148.9641  147.5725 C.3     1  UNL111     -0.0457
     14 C         119.9494  153.8571  146.4620 C.3     1  UNL111     -0.0136
     15 C         121.7175  154.6867  147.8587 C.3     1  UNL111     -0.0707
     16 C         119.0446  154.6604  147.1619 C.3     1  UNL111      0.0752
     17 C         124.1975  155.3041  143.8000 C.3     1  UNL111     -0.0500
     18 C         120.8180  155.5445  148.5014 C.3     1  UNL111     -0.0680
     19 C         115.1090  152.7712  145.4040 C.3     1  UNL111     -0.0294
     20 C         119.4700  155.5219  148.1637 C.3     1  UNL111     -0.0237
     21 C         115.5850  153.5373  146.6591 C.3     1  UNL111      0.0645
     22 C         117.0626  153.3939  146.9621 C.2     1  UNL111      0.2286
     23 C         115.1883  151.2494  145.6134 C.3     1  UNL111     -0.0606
     24 C         115.9393  153.1623  144.1702 C.3     1  UNL111     -0.0606
     25 C         113.6364  153.1452  145.1446 C.3     1  UNL111     -0.0606
     26 H         122.3183  149.5353  146.5803 H       1  UNL111      0.1303
     27 H         122.5327  151.2728  144.7054 H       1  UNL111      0.0555
     28 H         121.1576  152.3010  144.4114 H       1  UNL111      0.0555
     29 H         123.4059  152.5973  148.1346 H       1  UNL111      0.0555
     30 H         123.7963  151.3789  146.9515 H       1  UNL111      0.0555
     31 H         119.8666  151.1301  146.2242 H       1  UNL111      0.0737
     32 H         120.5583  149.9600  145.0832 H       1  UNL111      0.0737
     33 H         122.5012  150.3997  148.7781 H       1  UNL111      0.0737
     34 H         121.1193  151.4837  148.4571 H       1  UNL111      0.0737
     35 H         122.4346  155.4334  145.0000 H       1  UNL111      0.0642
     36 H         122.3600  154.2028  143.7176 H       1  UNL111      0.0642
     37 H         119.7343  149.4454  148.0035 H       1  UNL111      0.0663
     38 H         121.1950  148.4442  148.3405 H       1  UNL111      0.0663
     39 H         120.3350  148.2642  146.7814 H       1  UNL111      0.0663
     40 H         119.5553  153.2692  145.6404 H       1  UNL111      0.1142
     41 H         122.7634  154.7374  148.1634 H       1  UNL111      0.0909
     42 H         124.8555  155.7796  144.5350 H       1  UNL111      0.0306
     43 H         123.8658  156.0701  143.0924 H       1  UNL111      0.0306
     44 H         124.7875  154.5633  143.2504 H       1  UNL111      0.0306
     45 H         121.1713  156.2237  149.2751 H       1  UNL111      0.0912
     46 H         118.7647  156.1704  148.6761 H       1  UNL111      0.1113
     47 H         115.0381  153.2098  147.5522 H       1  UNL111      0.0881
     48 H         115.3573  154.6057  146.5456 H       1  UNL111      0.0881
     49 H         116.2222  150.9010  145.6977 H       1  UNL111      0.0287
     50 H         114.7377  150.7125  144.7705 H       1  UNL111      0.0287
     51 H         114.6548  150.9471  146.5215 H       1  UNL111      0.0287
     52 H         116.9870  152.8603  144.2753 H       1  UNL111      0.0287
     53 H         115.9168  154.2454  144.0062 H       1  UNL111      0.0287
     54 H         115.5511  152.6803  143.2656 H       1  UNL111      0.0287
     55 H         113.0054  152.8827  146.0013 H       1  UNL111      0.0287
     56 H         113.2413  152.6211  144.2670 H       1  UNL111      0.0287
     57 H         113.5260  154.2207  144.9651 H       1  UNL111      0.0287
@<TRIPOS>UNITY_ATOM_ATTR
4 1
charge 1
@<TRIPOS>BOND
     1     1    11    2
     2     2    16    1
     3     2    22    1
     4     3    22    2
     5     4     8    1
     6     4     9    1
     7     4    13    1
     8     5     6    1
     9     5     7    1
    10     5    10    1
    11     5    11    1
    12     6     8    1
    13     7     9    1
    14    10    14   ar
    15    10    15   ar
    16    11    12    1
    17    12    17    1
    18    14    16   ar
    19    15    18   ar
    20    16    20   ar
    21    18    20   ar
    22    19    21    1
    23    19    23    1
    24    19    24    1
    25    19    25    1
    26    21    22    1
    27     4    26    1
    28     6    27    1
    29     6    28    1
    30     7    29    1
    31     7    30    1
    32     8    31    1
    33     8    32    1
    34     9    33    1
    35     9    34    1
    36    12    35    1
    37    12    36    1
    38    13    37    1
    39    13    38    1
    40    13    39    1
    41    14    40    1
    42    15    41    1
    43    17    42    1
    44    17    43    1
    45    17    44    1
    46    18    45    1
    47    20    46    1
    48    21    47    1
    49    21    48    1
    50    23    49    1
    51    23    50    1
    52    23    51    1
    53    24    52    1
    54    24    53    1
    55    24    54    1
    56    25    55    1
    57    25    56    1
    58    25    57    1
@<TRIPOS>MOLECULE
23276599
 55 56 0 0 0
SMALL
GASTEIGER

@<TRIPOS>ATOM
      1 O         124.9231  153.0057  147.1650 O.2     1  UNL111     -0.4184
      2 O         118.0370  151.3858  146.1614 O.3     1  UNL111     -0.4202
      3 O         116.0465  152.2680  146.6021 O.3     1  UNL111     -0.4726
      4 O         117.7734  153.7064  146.1228 O.2     1  UNL111     -0.2349
      5 N         121.7520  156.2246  146.0443 N.4     1  UNL111      0.4253
      6 C         122.6099  153.4203  146.5909 C.3     1  UNL111      0.0586
      7 C         123.2358  154.3406  145.4964 C.3     1  UNL111     -0.0240
      8 C         122.0349  154.3693  147.6803 C.3     1  UNL111     -0.0240
      9 C         122.2392  155.3372  144.9284 C.3     1  UNL111     -0.0372
     10 C         121.0889  155.4418  147.1429 C.3     1  UNL111     -0.0372
     11 C         121.5983  152.4547  145.9483 C.3     1  UNL111     -0.0321
     12 C         123.7550  152.6250  147.2725 C.2     1  UNL111      0.0926
     13 C         123.3865  151.4214  148.1339 C.3     1  UNL111      0.0135
     14 C         120.8479  157.3120  145.5244 C.3     1  UNL111     -0.0457
     15 C         120.2877  152.2993  146.4260 C.3     1  UNL111     -0.0104
     16 C         121.9768  151.6699  144.8380 C.3     1  UNL111     -0.0707
     17 C         124.5673  150.9038  148.9381 C.3     1  UNL111     -0.0500
     18 C         119.3688  151.4994  145.7396 C.3     1  UNL111      0.0942
     19 C         121.0674  150.8227  144.1955 C.3     1  UNL111     -0.0676
     20 C         119.7529  150.7448  144.6391 C.3     1  UNL111     -0.0206
     21 C         117.3275  152.5742  146.2760 C.2     1  UNL111      0.4082
     22 C         115.1731  153.3975  146.7196 C.3     1  UNL111      0.0655
     23 C         113.7732  152.8846  147.0381 C.3     1  UNL111     -0.0243
     24 C         112.7705  154.0279  147.1657 C.3     1  UNL111     -0.0561
     25 C         111.3755  153.5133  147.4825 C.3     1  UNL111     -0.0680
     26 H         122.5733  156.6999  146.4451 H       1  UNL111      0.1303
     27 H         123.6757  153.7612  144.6771 H       1  UNL111      0.0555
     28 H         124.0737  154.9115  145.9217 H       1  UNL111      0.0555
     29 H         122.8693  154.8791  148.1843 H       1  UNL111      0.0555
     30 H         121.5300  153.8063  148.4743 H       1  UNL111      0.0555
     31 H         122.7274  155.9842  144.1917 H       1  UNL111      0.0737
     32 H         121.3687  154.8589  144.4672 H       1  UNL111      0.0737
     33 H         120.1617  155.0294  146.7375 H       1  UNL111      0.0737
     34 H         120.8376  156.1520  147.9383 H       1  UNL111      0.0737
     35 H         123.0201  150.6204  147.4852 H       1  UNL111      0.0642
     36 H         122.5883  151.7118  148.8235 H       1  UNL111      0.0642
     37 H         119.9627  156.8492  145.0799 H       1  UNL111      0.0663
     38 H         121.4051  157.8882  144.7810 H       1  UNL111      0.0663
     39 H         120.5748  157.9552  146.3651 H       1  UNL111      0.0663
     40 H         119.9389  152.7984  147.3239 H       1  UNL111      0.1146
     41 H         122.9979  151.6861  144.4567 H       1  UNL111      0.0909
     42 H         125.3782  150.5753  148.2795 H       1  UNL111      0.0306
     43 H         124.2639  150.0529  149.5557 H       1  UNL111      0.0306
     44 H         124.9648  151.6820  149.5980 H       1  UNL111      0.0306
     45 H         121.3881  150.2227  143.3457 H       1  UNL111      0.0912
     46 H         119.0414  150.0948  144.1365 H       1  UNL111      0.1117
     47 H         115.1644  153.9533  145.7745 H       1  UNL111      0.1198
     48 H         115.5288  154.0502  147.5253 H       1  UNL111      0.1198
     49 H         113.8034  152.2996  147.9659 H       1  UNL111      0.0491
     50 H         113.4553  152.1863  146.2537 H       1  UNL111      0.0491
     51 H         112.7384  154.6008  146.2316 H       1  UNL111      0.0331
     52 H         113.0886  154.7160  147.9574 H       1  UNL111      0.0331
     53 H         111.0151  152.8454  146.6936 H       1  UNL111      0.0258
     54 H         110.6735  154.3487  147.5672 H       1  UNL111      0.0258
     55 H         111.3658  152.9640  148.4293 H       1  UNL111      0.0258
@<TRIPOS>UNITY_ATOM_ATTR
5 1
charge 1
@<TRIPOS>BOND
     1     1    12    2
     2     2    18    1
     3     2    21    1
     4     3    21    1
     5     3    22    1
     6     4    21    2
     7     5     9    1
     8     5    10    1
     9     5    14    1
    10     6     7    1
    11     6     8    1
    12     6    11    1
    13     6    12    1
    14     7     9    1
    15     8    10    1
    16    11    15   ar
    17    11    16   ar
    18    12    13    1
    19    13    17    1
    20    15    18   ar
    21    16    19   ar
    22    18    20   ar
    23    19    20   ar
    24    22    23    1
    25    23    24    1
    26    24    25    1
    27     5    26    1
    28     7    27    1
    29     7    28    1
    30     8    29    1
    31     8    30    1
    32     9    31    1
    33     9    32    1
    34    10    33    1
    35    10    34    1
    36    13    35    1
    37    13    36    1
    38    14    37    1
    39    14    38    1
    40    14    39    1
    41    15    40    1
    42    16    41    1
    43    17    42    1
    44    17    43    1
    45    17    44    1
    46    19    45    1
    47    20    46    1
    48    22    47    1
    49    22    48    1
    50    23    49    1
    51    23    50    1
    52    24    51    1
    53    24    52    1
    54    25    53    1
    55    25    54    1
    56    25    55    1
@<TRIPOS>MOLECULE
86008574
 40 41 0 0 0
SMALL
GASTEIGER

@<TRIPOS>ATOM
      1 O         116.6504  151.0304  146.2867 O.co2   1  UNL1111    -0.7586
      2 O         119.0934  155.2205  147.4923 O.2     1  UNL1111    -0.4184
      3 O         124.1548  152.8875  148.0939 O.2     1  UNL1111    -0.5646
      4 N         116.6032  152.3801  146.5223 N.3     1  UNL1111     0.3999
      5 C         119.5259  153.1201  146.3288 C.3     1  UNL1111     0.0581
      6 C         118.6345  152.7801  145.1071 C.3     1  UNL1111    -0.0267
      7 C         118.8965  152.4479  147.5834 C.3     1  UNL1111    -0.0267
      8 C         117.1655  153.1290  145.3386 C.3     1  UNL1111    -0.0557
      9 C         117.4033  152.7230  147.7573 C.3     1  UNL1111    -0.0557
     10 C         120.9875  152.6295  146.2114 C.3     1  UNL1111    -0.0336
     11 C         119.5528  154.6698  146.4880 C.2     1  UNL1111     0.0926
     12 C         115.1666  152.7753  146.7325 C.3     1  UNL1111    -0.0642
     13 C         120.1093  155.4983  145.3333 C.3     1  UNL1111     0.0135
     14 C         121.9168  152.9712  147.2188 C.3     1  UNL1111    -0.0223
     15 C         121.4517  151.8605  145.1302 C.3     1  UNL1111    -0.0709
     16 C         120.5992  156.8600  145.7947 C.3     1  UNL1111    -0.0500
     17 C         123.2461  152.5616  147.1312 C.3     1  UNL1111     0.0343
     18 C         122.7886  151.4546  145.0543 C.3     1  UNL1111    -0.0692
     19 C         123.6879  151.8081  146.0552 C.3     1  UNL1111    -0.0324
     20 H         123.6995  153.3663  148.8056 H       1  UNL1111     0.3342
     21 H         118.6940  151.7059  144.8905 H       1  UNL1111     0.0554
     22 H         118.9830  153.2941  144.2036 H       1  UNL1111     0.0554
     23 H         119.4049  152.7685  148.5014 H       1  UNL1111     0.0554
     24 H         119.0445  151.3609  147.5186 H       1  UNL1111     0.0554
     25 H         117.0165  154.1968  145.5313 H       1  UNL1111     0.0704
     26 H         116.5607  152.8325  144.4740 H       1  UNL1111     0.0704
     27 H         116.9939  152.1066  148.5663 H       1  UNL1111     0.0704
     28 H         117.1957  153.7733  147.9823 H       1  UNL1111     0.0704
     29 H         114.6144  152.5016  145.8293 H       1  UNL1111     0.0630
     30 H         115.1282  153.8529  146.9099 H       1  UNL1111     0.0630
     31 H         114.7940  152.2159  147.5950 H       1  UNL1111     0.0630
     32 H         119.3172  155.6225  144.5882 H       1  UNL1111     0.0642
     33 H         120.9430  154.9689  144.8643 H       1  UNL1111     0.0642
     34 H         121.5982  153.5643  148.0731 H       1  UNL1111     0.1128
     35 H         120.7934  151.5509  144.3228 H       1  UNL1111     0.0909
     36 H         119.7802  157.4540  146.2136 H       1  UNL1111     0.0306
     37 H         121.0263  157.4160  144.9545 H       1  UNL1111     0.0306
     38 H         121.3689  156.7579  146.5669 H       1  UNL1111     0.0306
     39 H         123.1265  150.8561  144.2117 H       1  UNL1111     0.0911
     40 H         124.7255  151.4924  145.9989 H       1  UNL1111     0.1100
@<TRIPOS>UNITY_ATOM_ATTR
1 1
charge -1
4 1
charge 1
@<TRIPOS>BOND
     1     1     4    1
     2     2    11    2
     3     3    17    1
     4     4     8    1
     5     4     9    1
     6     4    12    1
     7     5     6    1
     8     5     7    1
     9     5    10    1
    10     5    11    1
    11     6     8    1
    12     7     9    1
    13    10    14   ar
    14    10    15   ar
    15    11    13    1
    16    13    16    1
    17    14    17   ar
    18    15    18   ar
    19    17    19   ar
    20    18    19   ar
    21     3    20    1
    22     6    21    1
    23     6    22    1
    24     7    23    1
    25     7    24    1
    26     8    25    1
    27     8    26    1
    28     9    27    1
    29     9    28    1
    30    12    29    1
    31    12    30    1
    32    12    31    1
    33    13    32    1
    34    13    33    1
    35    14    34    1
    36    15    35    1
    37    16    36    1
    38    16    37    1
    39    16    38    1
    40    18    39    1
    41    19    40    1
@<TRIPOS>MOLECULE
47168
 37 38 0 0 0
SMALL
GASTEIGER

@<TRIPOS>ATOM
      1 O         121.4584  150.9784  147.1986 O.2     1  UNL111     -0.4196
      2 O         115.7692  152.0063  145.1507 O.2     1  UNL111     -0.5646
      3 N         123.1479  153.8040  145.7102 N.4     1  UNL111      0.4253
      4 C         120.3969  153.0698  146.6076 C.3     1  UNL111      0.0577
      5 C         120.9292  152.8235  145.1628 C.3     1  UNL111     -0.0242
      6 C         121.2635  154.1807  147.2577 C.3     1  UNL111     -0.0242
      7 C         122.4411  152.6623  145.0344 C.3     1  UNL111     -0.0372
      8 C         122.7627  153.9225  147.1573 C.3     1  UNL111     -0.0372
      9 C         118.8978  153.4287  146.5092 C.3     1  UNL111     -0.0338
     10 C         120.5763  151.7965  147.4719 C.2     1  UNL111      0.0903
     11 C         124.6421  153.6905  145.5465 C.3     1  UNL111     -0.0457
     12 C         118.0044  152.5446  145.8627 C.3     1  UNL111     -0.0223
     13 C         118.3593  154.6039  147.0655 C.3     1  UNL111     -0.0709
     14 C         119.7358  151.6227  148.7164 C.3     1  UNL111      0.0108
     15 C         116.6463  152.8453  145.7686 C.3     1  UNL111      0.0343
     16 C         116.9948  154.8943  146.9620 C.3     1  UNL111     -0.0692
     17 C         116.1383  154.0154  146.3093 C.3     1  UNL111     -0.0324
     18 H         116.2272  151.2046  144.8518 H       1  UNL111      0.3342
     19 H         122.8727  154.6723  145.2303 H       1  UNL111      0.1303
     20 H         120.6252  153.6651  144.5235 H       1  UNL111      0.0555
     21 H         120.4711  151.9280  144.7248 H       1  UNL111      0.0555
     22 H         121.0073  154.3045  148.3173 H       1  UNL111      0.0555
     23 H         121.0609  155.1444  146.7706 H       1  UNL111      0.0555
     24 H         122.8204  151.7301  145.4606 H       1  UNL111      0.0737
     25 H         122.7263  152.6912  143.9765 H       1  UNL111      0.0737
     26 H         123.3163  154.7725  147.5710 H       1  UNL111      0.0737
     27 H         123.0771  153.0102  147.6741 H       1  UNL111      0.0737
     28 H         124.9814  152.7787  146.0453 H       1  UNL111      0.0663
     29 H         125.0990  154.5765  145.9950 H       1  UNL111      0.0663
     30 H         124.8638  153.6593  144.4765 H       1  UNL111      0.0663
     31 H         118.3604  151.6087  145.4399 H       1  UNL111      0.1128
     32 H         118.9694  155.3272  147.5997 H       1  UNL111      0.0909
     33 H         120.1536  150.8122  149.3213 H       1  UNL111      0.0593
     34 H         118.7107  151.3582  148.4500 H       1  UNL111      0.0593
     35 H         119.7519  152.5352  149.3164 H       1  UNL111      0.0593
     36 H         116.5953  155.8087  147.3962 H       1  UNL111      0.0911
     37 H         115.0771  154.2376  146.2298 H       1  UNL111      0.1100
@<TRIPOS>UNITY_ATOM_ATTR
3 1
charge 1
@<TRIPOS>BOND
     1     1    10    2
     2     2    15    1
     3     3     7    1
     4     3     8    1
     5     3    11    1
     6     4     5    1
     7     4     6    1
     8     4     9    1
     9     4    10    1
    10     5     7    1
    11     6     8    1
    12     9    12   ar
    13     9    13   ar
    14    10    14    1
    15    12    15   ar
    16    13    16   ar
    17    15    17   ar
    18    16    17   ar
    19     2    18    1
    20     3    19    1
    21     5    20    1
    22     5    21    1
    23     6    22    1
    24     6    23    1
    25     7    24    1
    26     7    25    1
    27     8    26    1
    28     8    27    1
    29    11    28    1
    30    11    29    1
    31    11    30    1
    32    12    31    1
    33    13    32    1
    34    14    33    1
    35    14    34    1
    36    14    35    1
    37    16    36    1
    38    17    37    1
