@<TRIPOS>MOLECULE
5359272
 43 46 0 0 0
SMALL
GASTEIGER

@<TRIPOS>ATOM
      1 O         120.9768  152.4128  145.7478 O.3     1  UNL111     -0.5646
      2 N         126.4388  155.0872  147.5447 N.4     1  UNL111      0.4265
      3 C         125.8303  152.4205  146.8084 C.3     1  UNL111     -0.0105
      4 C         127.1647  153.0236  146.2964 C.3     1  UNL111     -0.0338
      5 C         127.0002  154.5430  146.1998 C.3     1  UNL111     -0.0286
      6 C         125.7358  152.8005  148.3156 C.3     1  UNL111     -0.0417
      7 C         125.8316  150.8706  146.6169 C.3     1  UNL111     -0.0464
      8 C         127.6449  152.3324  145.0148 C.3     1  UNL111     -0.0515
      9 C         124.6001  153.0250  146.0826 C.ar    1  UNL111     -0.0485
     10 C         126.0106  154.9111  145.0893 C.3     1  UNL111     -0.0257
     11 C         126.4623  154.1015  148.6837 C.3     1  UNL111     -0.0394
     12 C         127.2352  150.2821  146.4927 C.3     1  UNL111     -0.0594
     13 C         127.9852  150.8632  145.2909 C.3     1  UNL111     -0.0599
     14 C         124.7001  154.1840  145.2764 C.ar    1  UNL111     -0.0620
     15 C         123.3283  152.4367  146.2471 C.ar    1  UNL111     -0.0248
     16 C         127.0571  156.4036  147.9249 C.3     1  UNL111     -0.0445
     17 C         123.5637  154.6913  144.6259 C.ar    1  UNL111     -0.0634
     18 C         122.2126  152.9666  145.6051 C.ar    1  UNL111      0.0343
     19 C         122.3229  154.0849  144.7950 C.ar    1  UNL111     -0.0309
     20 H         121.0467  151.5700  146.2256 H       1  UNL111      0.3342
     21 H         125.4372  155.2847  147.3928 H       1  UNL111      0.1323
     22 H         127.9609  152.8328  147.0321 H       1  UNL111      0.0584
     23 H         127.9710  155.0243  146.0339 H       1  UNL111      0.0831
     24 H         126.1781  152.0064  148.9317 H       1  UNL111      0.0507
     25 H         124.6904  152.8713  148.6414 H       1  UNL111      0.0507
     26 H         125.2911  150.5941  145.7010 H       1  UNL111      0.0380
     27 H         125.3007  150.3796  147.4421 H       1  UNL111      0.0380
     28 H         128.5266  152.8402  144.6069 H       1  UNL111      0.0370
     29 H         126.8734  152.3714  144.2370 H       1  UNL111      0.0370
     30 H         126.4220  154.6598  144.1052 H       1  UNL111      0.0609
     31 H         125.8374  155.9945  145.0995 H       1  UNL111      0.0609
     32 H         125.9791  154.5757  149.5452 H       1  UNL111      0.0734
     33 H         127.5134  153.9194  148.9354 H       1  UNL111      0.0734
     34 H         127.1794  149.1919  146.3943 H       1  UNL111      0.0328
     35 H         127.7977  150.4806  147.4133 H       1  UNL111      0.0328
     36 H         129.0628  150.7584  145.4661 H       1  UNL111      0.0326
     37 H         127.7630  150.2747  144.3925 H       1  UNL111      0.0326
     38 H         123.2073  151.5595  146.8780 H       1  UNL111      0.1125
     39 H         128.1166  156.2401  148.1384 H       1  UNL111      0.0667
     40 H         126.5337  156.7830  148.8064 H       1  UNL111      0.0667
     41 H         126.9268  157.0947  147.0884 H       1  UNL111      0.0667
     42 H         123.6318  155.5667  143.9817 H       1  UNL111      0.0932
     43 H         121.4431  154.4803  144.2927 H       1  UNL111      0.1103
@<TRIPOS>UNITY_ATOM_ATTR
2 1
charge 1
@<TRIPOS>BOND
     1     1    18    1
     2     2     5    1
     3     2    11    1
     4     2    16    1
     5     3     4    1
     6     3     6    1
     7     3     7    1
     8     3     9    1
     9     4     5    1
    10     4     8    1
    11     5    10    1
    12     6    11    1
    13     7    12    1
    14     8    13    1
    15     9    14   ar
    16     9    15   ar
    17    10    14    1
    18    12    13    1
    19    14    17   ar
    20    15    18   ar
    21    17    19   ar
    22    18    19   ar
    23     1    20    1
    24     2    21    1
    25     4    22    1
    26     5    23    1
    27     6    24    1
    28     6    25    1
    29     7    26    1
    30     7    27    1
    31     8    28    1
    32     8    29    1
    33    10    30    1
    34    10    31    1
    35    11    32    1
    36    11    33    1
    37    12    34    1
    38    12    35    1
    39    13    36    1
    40    13    37    1
    41    15    38    1
    42    16    39    1
    43    16    40    1
    44    16    41    1
    45    17    42    1
    46    19    43    1
@<TRIPOS>MOLECULE
91753908
 50 54 0 0 0
SMALL
GASTEIGER

@<TRIPOS>ATOM
      1 O         121.6994  153.0138  147.7142 O.2     1  UNL111     -0.5544
      2 O         121.9600  155.9050  148.2061 O.3     1  UNL111     -0.4563
      3 O         122.6139  157.6825  146.8329 O.2     1  UNL111     -0.3367
      4 N         126.2126  151.0707  148.1903 N.4     1  UNL111      0.4269
      5 C         123.5297  151.5668  147.2460 C.3     1  UNL111      0.0401
      6 C         124.3866  150.8913  146.1920 C.3     1  UNL111     -0.0208
      7 C         126.0636  151.3589  146.4080 C.3     1  UNL111     -0.0259
      8 C         122.1750  152.0654  146.7327 C.3     1  UNL111      0.0591
      9 C         123.6777  150.8248  148.5831 C.3     1  UNL111     -0.0287
     10 C         123.9606  152.9484  147.4774 C.3     1  UNL111      0.0209
     11 C         123.7121  150.9196  144.8135 C.3     1  UNL111     -0.0473
     12 C         121.4057  150.9023  146.1623 C.3     1  UNL111     -0.0212
     13 C         126.0636  152.3100  146.4080 C.3     1  UNL111     -0.0226
     14 C         125.0904  150.2336  148.8036 C.3     1  UNL111     -0.0370
     15 C         122.2375  150.3690  144.9427 C.3     1  UNL111     -0.0490
     16 C         125.2013  153.3738  147.1100 C.3     1  UNL111     -0.0431
     17 C         122.8844  153.7545  147.8218 C.3     1  UNL111      0.1112
     18 C         127.5762  150.4951  148.4815 C.3     1  UNL111     -0.0445
     19 C         125.4304  154.7381  147.2615 C.3     1  UNL111     -0.0562
     20 C         123.0782  155.1079  147.9394 C.3     1  UNL111      0.1316
     21 C         124.3819  155.5940  147.7122 C.3     1  UNL111     -0.0054
     22 C         121.7922  157.1270  147.5455 C.2     1  UNL111      0.2291
     23 C         120.3894  157.6232  147.8198 C.3     1  UNL111      0.0596
     24 C         120.1250  158.9764  147.1816 C.3     1  UNL111     -0.0378
     25 H         126.1814  151.9854  148.6698 H       1  UNL111      0.1324
     26 H         124.3314  149.8054  146.4068 H       1  UNL111      0.0615
     27 H         126.0636  150.2889  146.4080 H       1  UNL111      0.0834
     28 H         122.2750  152.7062  145.8314 H       1  UNL111      0.1262
     29 H         122.9630  149.9939  148.6282 H       1  UNL111      0.0539
     30 H         123.4334  151.4690  149.4386 H       1  UNL111      0.0539
     31 H         124.2672  150.2926  144.1067 H       1  UNL111      0.0376
     32 H         123.7050  151.9331  144.3979 H       1  UNL111      0.0376
     33 H         120.4033  151.2060  145.8420 H       1  UNL111      0.0510
     34 H         121.2646  150.1130  146.9089 H       1  UNL111      0.0510
     35 H         125.9803  152.6832  145.3695 H       1  UNL111      0.0613
     36 H         127.0735  152.7091  146.6182 H       1  UNL111      0.0613
     37 H         125.2999  150.1608  149.8766 H       1  UNL111      0.0738
     38 H         125.1734  149.2298  148.3729 H       1  UNL111      0.0738
     39 H         122.2713  149.2741  145.0067 H       1  UNL111      0.0354
     40 H         121.7030  150.6061  144.0151 H       1  UNL111      0.0354
     41 H         127.6414  149.5097  148.0142 H       1  UNL111      0.0667
     42 H         127.6890  150.4273  149.5662 H       1  UNL111      0.0667
     43 H         128.3222  151.1762  148.0660 H       1  UNL111      0.0667
     44 H         126.3825  155.1864  146.9821 H       1  UNL111      0.0940
     45 H         124.5888  156.6604  147.7953 H       1  UNL111      0.1154
     46 H         120.2405  157.6938  148.9018 H       1  UNL111      0.0846
     47 H         119.6876  156.8902  147.4072 H       1  UNL111      0.0846
     48 H         120.7597  159.7494  147.6270 H       1  UNL111      0.0335
     49 H         119.0796  159.2677  147.3244 H       1  UNL111      0.0335
     50 H         120.3284  158.9556  146.1056 H       1  UNL111      0.0335
@<TRIPOS>UNITY_ATOM_ATTR
4 1
charge 1
@<TRIPOS>BOND
     1     1     8    1
     2     1    17    1
     3     2    20    1
     4     2    22    1
     5     3    22    2
     6     4     7    1
     7     4    14    1
     8     4    18    1
     9     5     6    1
    10     5     8    1
    11     5     9    1
    12     5    10    1
    13     6     7    1
    14     6    11    1
    15     7    13    1
    16     8    12    1
    17     9    14    1
    18    10    16   ar
    19    10    17   ar
    20    11    15    1
    21    12    15    1
    22    13    16    1
    23    16    19   ar
    24    17    20   ar
    25    19    21   ar
    26    20    21   ar
    27    22    23    1
    28    23    24    1
    29     4    25    1
    30     6    26    1
    31     7    27    1
    32     8    28    1
    33     9    29    1
    34     9    30    1
    35    11    31    1
    36    11    32    1
    37    12    33    1
    38    12    34    1
    39    13    35    1
    40    13    36    1
    41    14    37    1
    42    14    38    1
    43    15    39    1
    44    15    40    1
    45    18    41    1
    46    18    42    1
    47    18    43    1
    48    19    44    1
    49    21    45    1
    50    23    46    1
    51    23    47    1
    52    24    48    1
    53    24    49    1
    54    24    50    1
@<TRIPOS>MOLECULE
5360697
 43 46 0 0 0
SMALL
GASTEIGER

@<TRIPOS>ATOM
      1 O         120.9767  152.4131  145.7481 O.3     1  UNL111     -0.5646
      2 N         126.4387  155.0871  147.5446 N.4     1  UNL111      0.4265
      3 C         125.8303  152.4204  146.8083 C.3     1  UNL111     -0.0105
      4 C         127.1647  153.0236  146.2964 C.3     1  UNL111     -0.0338
      5 C         127.0002  154.5430  146.1997 C.3     1  UNL111     -0.0286
      6 C         125.7358  152.8004  148.3156 C.3     1  UNL111     -0.0417
      7 C         125.8316  150.8706  146.6168 C.3     1  UNL111     -0.0464
      8 C         127.6450  152.3324  145.0148 C.3     1  UNL111     -0.0515
      9 C         124.6001  153.0250  146.0825 C.ar    1  UNL111     -0.0485
     10 C         126.0106  154.9111  145.0892 C.3     1  UNL111     -0.0257
     11 C         126.4622  154.1015  148.6837 C.3     1  UNL111     -0.0394
     12 C         127.2352  150.2820  146.4927 C.3     1  UNL111     -0.0594
     13 C         127.9854  150.8631  145.2910 C.3     1  UNL111     -0.0599
     14 C         124.7002  154.1840  145.2763 C.ar    1  UNL111     -0.0620
     15 C         123.3283  152.4368  146.2472 C.ar    1  UNL111     -0.0248
     16 C         127.0569  156.4036  147.9248 C.3     1  UNL111     -0.0445
     17 C         123.5637  154.6914  144.6259 C.ar    1  UNL111     -0.0634
     18 C         122.2125  152.9667  145.6053 C.ar    1  UNL111      0.0343
     19 C         122.3228  154.0850  144.7951 C.ar    1  UNL111     -0.0309
     20 H         121.0466  151.5703  146.2260 H       1  UNL111      0.3342
     21 H         125.4371  155.2845  147.3927 H       1  UNL111      0.1323
     22 H         127.9609  152.8328  147.0321 H       1  UNL111      0.0584
     23 H         127.9710  155.0243  146.0339 H       1  UNL111      0.0831
     24 H         126.1783  152.0064  148.9316 H       1  UNL111      0.0507
     25 H         124.6904  152.8711  148.6414 H       1  UNL111      0.0507
     26 H         125.2912  150.5941  145.7007 H       1  UNL111      0.0380
     27 H         125.3006  150.3796  147.4419 H       1  UNL111      0.0380
     28 H         128.5267  152.8402  144.6070 H       1  UNL111      0.0370
     29 H         126.8735  152.3712  144.2370 H       1  UNL111      0.0370
     30 H         126.4220  154.6596  144.1051 H       1  UNL111      0.0609
     31 H         125.8375  155.9944  145.0993 H       1  UNL111      0.0609
     32 H         125.9789  154.5757  149.5451 H       1  UNL111      0.0734
     33 H         127.5133  153.9194  148.9354 H       1  UNL111      0.0734
     34 H         127.1794  149.1918  146.3942 H       1  UNL111      0.0328
     35 H         127.7976  150.4805  147.4134 H       1  UNL111      0.0328
     36 H         129.0629  150.7585  145.4664 H       1  UNL111      0.0326
     37 H         127.7634  150.2746  144.3925 H       1  UNL111      0.0326
     38 H         123.2073  151.5595  146.8781 H       1  UNL111      0.1125
     39 H         128.1164  156.2402  148.1384 H       1  UNL111      0.0667
     40 H         126.5334  156.7829  148.8063 H       1  UNL111      0.0667
     41 H         126.9266  157.0947  147.0883 H       1  UNL111      0.0667
     42 H         123.6318  155.5668  143.9817 H       1  UNL111      0.0932
     43 H         121.4431  154.4805  144.2929 H       1  UNL111      0.1103
@<TRIPOS>UNITY_ATOM_ATTR
2 1
charge 1
@<TRIPOS>BOND
     1     1    18    1
     2     2     5    1
     3     2    11    1
     4     2    16    1
     5     3     4    1
     6     3     6    1
     7     3     7    1
     8     3     9    1
     9     4     5    1
    10     4     8    1
    11     5    10    1
    12     6    11    1
    13     7    12    1
    14     8    13    1
    15     9    14   ar
    16     9    15   ar
    17    10    14    1
    18    12    13    1
    19    14    17   ar
    20    15    18   ar
    21    17    19   ar
    22    18    19   ar
    23     1    20    1
    24     2    21    1
    25     4    22    1
    26     5    23    1
    27     6    24    1
    28     6    25    1
    29     7    26    1
    30     7    27    1
    31     8    28    1
    32     8    29    1
    33    10    30    1
    34    10    31    1
    35    11    32    1
    36    11    33    1
    37    12    34    1
    38    12    35    1
    39    13    36    1
    40    13    37    1
    41    15    38    1
    42    16    39    1
    43    16    40    1
    44    16    41    1
    45    17    42    1
    46    19    43    1
@<TRIPOS>MOLECULE
3918
 43 46 0 0 0
SMALL
GASTEIGER

@<TRIPOS>ATOM
      1 O         120.9768  152.4128  145.7478 O.3     1  UNL111     -0.5646
      2 N         126.4387  155.0872  147.5447 N.4     1  UNL111      0.4265
      3 C         125.8303  152.4205  146.8084 C.3     1  UNL111     -0.0105
      4 C         127.1647  153.0236  146.2964 C.3     1  UNL111     -0.0338
      5 C         127.0002  154.5430  146.1998 C.3     1  UNL111     -0.0286
      6 C         125.7358  152.8005  148.3156 C.3     1  UNL111     -0.0417
      7 C         125.8316  150.8706  146.6169 C.3     1  UNL111     -0.0464
      8 C         127.6449  152.3324  145.0148 C.3     1  UNL111     -0.0515
      9 C         124.6001  153.0250  146.0826 C.ar    1  UNL111     -0.0485
     10 C         126.0106  154.9111  145.0893 C.3     1  UNL111     -0.0257
     11 C         126.4623  154.1015  148.6837 C.3     1  UNL111     -0.0394
     12 C         127.2352  150.2821  146.4927 C.3     1  UNL111     -0.0594
     13 C         127.9853  150.8632  145.2909 C.3     1  UNL111     -0.0599
     14 C         124.7001  154.1840  145.2764 C.ar    1  UNL111     -0.0620
     15 C         123.3283  152.4367  146.2471 C.ar    1  UNL111     -0.0248
     16 C         127.0570  156.4036  147.9249 C.3     1  UNL111     -0.0445
     17 C         123.5637  154.6913  144.6259 C.ar    1  UNL111     -0.0634
     18 C         122.2126  152.9666  145.6051 C.ar    1  UNL111      0.0343
     19 C         122.3229  154.0849  144.7950 C.ar    1  UNL111     -0.0309
     20 H         121.0467  151.5700  146.2257 H       1  UNL111      0.3342
     21 H         125.4372  155.2846  147.3928 H       1  UNL111      0.1323
     22 H         127.9609  152.8328  147.0321 H       1  UNL111      0.0584
     23 H         127.9710  155.0243  146.0339 H       1  UNL111      0.0831
     24 H         126.1782  152.0064  148.9317 H       1  UNL111      0.0507
     25 H         124.6904  152.8713  148.6414 H       1  UNL111      0.0507
     26 H         125.2911  150.5941  145.7009 H       1  UNL111      0.0380
     27 H         125.3007  150.3796  147.4421 H       1  UNL111      0.0380
     28 H         128.5266  152.8402  144.6070 H       1  UNL111      0.0370
     29 H         126.8734  152.3713  144.2370 H       1  UNL111      0.0370
     30 H         126.4220  154.6597  144.1052 H       1  UNL111      0.0609
     31 H         125.8374  155.9945  145.0995 H       1  UNL111      0.0609
     32 H         125.9791  154.5757  149.5452 H       1  UNL111      0.0734
     33 H         127.5134  153.9194  148.9354 H       1  UNL111      0.0734
     34 H         127.1794  149.1918  146.3943 H       1  UNL111      0.0328
     35 H         127.7977  150.4806  147.4133 H       1  UNL111      0.0328
     36 H         129.0628  150.7584  145.4662 H       1  UNL111      0.0326
     37 H         127.7630  150.2747  144.3925 H       1  UNL111      0.0326
     38 H         123.2073  151.5595  146.8780 H       1  UNL111      0.1125
     39 H         128.1165  156.2401  148.1384 H       1  UNL111      0.0667
     40 H         126.5336  156.7830  148.8064 H       1  UNL111      0.0667
     41 H         126.9268  157.0947  147.0884 H       1  UNL111      0.0667
     42 H         123.6318  155.5667  143.9817 H       1  UNL111      0.0932
     43 H         121.4431  154.4803  144.2927 H       1  UNL111      0.1103
@<TRIPOS>UNITY_ATOM_ATTR
2 1
charge 1
@<TRIPOS>BOND
     1     1    18    1
     2     2     5    1
     3     2    11    1
     4     2    16    1
     5     3     4    1
     6     3     6    1
     7     3     7    1
     8     3     9    1
     9     4     5    1
    10     4     8    1
    11     5    10    1
    12     6    11    1
    13     7    12    1
    14     8    13    1
    15     9    14   ar
    16     9    15   ar
    17    10    14    1
    18    12    13    1
    19    14    17   ar
    20    15    18   ar
    21    17    19   ar
    22    18    19   ar
    23     1    20    1
    24     2    21    1
    25     4    22    1
    26     5    23    1
    27     6    24    1
    28     6    25    1
    29     7    26    1
    30     7    27    1
    31     8    28    1
    32     8    29    1
    33    10    30    1
    34    10    31    1
    35    11    32    1
    36    11    33    1
    37    12    34    1
    38    12    35    1
    39    13    36    1
    40    13    37    1
    41    15    38    1
    42    16    39    1
    43    16    40    1
    44    16    41    1
    45    17    42    1
    46    19    43    1
@<TRIPOS>MOLECULE
169437876
 35 39 0 0 0
SMALL
GASTEIGER

@<TRIPOS>ATOM
      1 O         126.8325  150.5665  148.1360 O.2     1  UNL111     -0.4870
      2 O         124.7231  151.6526  147.6186 O.3     1  UNL111     -0.3118
      3 O         127.1680  150.1379  145.4358 O.3     1  UNL111     -0.2487
      4 O         125.6743  151.7250  143.5572 O.3     1  UNL111     -0.2622
      5 O         123.6174  153.3561  144.6719 O.3     1  UNL111     -0.2673
      6 O         122.7586  153.5839  148.5740 O.co2   1  UNL111     -0.5491
      7 O         123.9951  154.9833  147.2813 O.co2   1  UNL111     -0.5491
      8 N         126.0342  155.2537  145.3895 N.4     1  UNL111      0.4412
      9 C         128.8512  154.3337  146.2844 C.3     1  UNL111      0.0449
     10 C         128.3138  155.8931  146.1286 C.3     1  UNL111      0.0295
     11 C         126.8535  155.9711  146.3693 C.3     1  UNL111      0.0335
     12 C         128.2574  153.7704  145.0777 C.3     1  UNL111      0.0526
     13 C         130.3351  154.4630  146.3184 C.3     1  UNL111      0.0154
     14 C         129.2601  156.9608  146.2291 C.3     1  UNL111      0.0168
     15 C         128.2849  153.7016  147.5876 C.2     1  UNL111     -0.0094
     16 C         126.7624  155.5160  147.7180 C.3     1  UNL111      0.0590
     17 C         126.8664  154.2410  144.7195 C.3     1  UNL111      0.0405
     18 C         131.3857  155.5820  146.3648 C.3     1  UNL111      0.0037
     19 C         130.7867  156.9835  146.3328 C.3     1  UNL111      0.0047
     20 C         127.3263  154.3942  148.3846 C.2     1  UNL111     -0.0115
     21 C         128.3751  152.3265  147.7668 C.2     1  UNL111      0.0463
     22 C         125.2642  156.1057  144.4882 C.3     1  UNL111     -0.0324
     23 C         126.6762  153.8084  149.4643 C.2     1  UNL111      0.0103
     24 C         127.4695  151.7074  148.6382 C.2     1  UNL111      0.1027
     25 C         126.7653  152.4333  149.6057 C.2     1  UNL111      0.0547
     26 C         125.8285  150.8982  147.1903 C.3     1  UNL111      0.2787
     27 C         126.1567  150.8392  145.7579 C.3     1  UNL111      0.2910
     28 C         125.3466  151.6413  144.7841 C.3     1  UNL111      0.2750
     29 C         124.3008  152.5475  145.3686 C.3     1  UNL111      0.2547
     30 C         124.0909  152.6177  146.8154 C.3     1  UNL111      0.2151
     31 C         123.5251  153.8246  147.5798 C.2     1  UNL111      0.0978
     32 H         125.2792  154.6669  145.8532 H       1  UNL111      0.1523
     33 H         125.9386  156.8282  144.0151 H       1  UNL111      0.0693
     34 H         124.5019  156.6369  145.0662 H       1  UNL111      0.0693
     35 H         124.7915  155.5060  143.7073 H       1  UNL111      0.0693
@<TRIPOS>UNITY_ATOM_ATTR
6 1
charge -1
8 1
charge 1
@<TRIPOS>BOND
     1     1    24    1
     2    26     1    1
     3     2    26    1
     4     2    30    1
     5    27     3    1
     6    28     4    1
     7    29     5    1
     8     6    31   ar
     9     7    31   ar
    10     8    11    1
    11     8    17    1
    12     8    22    1
    13     9    10    1
    14     9    12    1
    15     9    13    1
    16     9    15    1
    17    10    11    1
    18    10    14    1
    19    11    16    1
    20    12    17    1
    21    13    18    1
    22    14    19    1
    23    15    20    2
    24    15    21    1
    25    16    20    1
    26    18    19    1
    27    20    23    1
    28    21    24    2
    29    23    25    2
    30    24    25    1
    31    26    27    1
    32    27    28    1
    33    28    29    1
    34    29    30    1
    35    30    31    1
    36     8    32    1
    37    22    33    1
    38    22    34    1
    39    22    35    1
