@<TRIPOS>MOLECULE
10070040
 63 65 0 0 0
SMALL
GASTEIGER

@<TRIPOS>ATOM
      1 O         122.4436  154.7727  144.5733 O.3     1  UNL111     -0.5241
      2 O         120.1992  155.1766  144.6533 O.2     1  UNL111     -0.3270
      3 O         122.7327  155.3515  147.5601 O.2     1  UNL111     -0.3812
      4 N         118.1964  152.8509  146.3618 N.4     1  UNL111      0.4280
      5 N         122.5283  153.2327  146.6996 N.am    1  UNL111     -0.2511
      6 C         121.1239  153.5159  146.2007 C.3     1  UNL111      0.1433
      7 C         120.1886  153.9981  147.3716 C.3     1  UNL111      0.0033
      8 C         120.4633  152.2805  145.5150 C.3     1  UNL111      0.0018
      9 C         118.7149  154.1325  146.9625 C.3     1  UNL111     -0.0284
     10 C         118.9962  152.4593  145.1487 C.3     1  UNL111     -0.0299
     11 C         120.2924  153.1063  148.6235 C.3     1  UNL111     -0.0494
     12 C         121.1987  154.6157  145.0939 C.2     1  UNL111      0.2502
     13 C         116.7098  152.9398  146.0107 C.3     1  UNL111     -0.0354
     14 C         123.1221  151.9686  146.4525 C.3     1  UNL111      0.0038
     15 C         123.2449  154.2495  147.3533 C.2     1  UNL111      0.1570
     16 C         115.8346  152.8635  147.2652 C.3     1  UNL111     -0.0312
     17 C         124.6798  153.9510  147.7765 C.3     1  UNL111      0.0345
     18 C         123.2063  151.0268  147.4831 C.3     1  UNL111     -0.0543
     19 C         123.6318  151.6648  145.1864 C.3     1  UNL111     -0.0543
     20 C         114.3747  152.8608  146.8948 C.3     1  UNL111     -0.0753
     21 C         122.5527  155.7805  143.5646 C.3     1  UNL111      0.0468
     22 C         125.3755  155.1727  148.3555 C.3     1  UNL111     -0.0445
     23 C         123.7829  149.7796  147.2412 C.3     1  UNL111     -0.0786
     24 C         124.2090  150.4169  144.9495 C.3     1  UNL111     -0.0786
     25 C         113.6744  154.0686  146.7658 C.3     1  UNL111     -0.0811
     26 C         113.7066  151.6547  146.6410 C.3     1  UNL111     -0.0811
     27 C         124.2808  149.4747  145.9749 C.3     1  UNL111     -0.0844
     28 C         112.3297  154.0678  146.3931 C.3     1  UNL111     -0.0857
     29 C         112.3620  151.6588  146.2674 C.3     1  UNL111     -0.0857
     30 C         111.6748  152.8642  146.1429 C.3     1  UNL111     -0.0868
     31 H         118.2870  152.0953  147.0545 H       1  UNL111      0.1328
     32 H         120.4794  155.0073  147.6834 H       1  UNL111      0.0694
     33 H         120.5363  151.4022  146.1685 H       1  UNL111      0.0648
     34 H         120.9948  152.0276  144.5894 H       1  UNL111      0.0648
     35 H         118.1048  154.3510  147.8445 H       1  UNL111      0.0764
     36 H         118.5377  154.9361  146.2434 H       1  UNL111      0.0764
     37 H         118.8288  153.2090  144.3702 H       1  UNL111      0.0753
     38 H         118.5936  151.5035  144.7939 H       1  UNL111      0.0753
     39 H         120.0888  152.0549  148.4013 H       1  UNL111      0.0322
     40 H         119.5788  153.4290  149.3897 H       1  UNL111      0.0322
     41 H         121.2855  153.1698  149.0774 H       1  UNL111      0.0322
     42 H         116.4896  152.0907  145.3528 H       1  UNL111      0.0751
     43 H         116.5568  153.8666  145.4456 H       1  UNL111      0.0751
     44 H         116.0283  153.7062  147.9379 H       1  UNL111      0.0589
     45 H         116.0691  151.9578  147.8385 H       1  UNL111      0.0589
     46 H         125.2478  153.6021  146.9081 H       1  UNL111      0.0735
     47 H         124.6698  153.1630  148.5356 H       1  UNL111      0.0735
     48 H         122.8351  151.2526  148.4790 H       1  UNL111      0.0994
     49 H         123.6099  152.3969  144.3836 H       1  UNL111      0.0994
     50 H         123.6060  155.8650  143.2839 H       1  UNL111      0.1103
     51 H         122.2166  156.7482  143.9496 H       1  UNL111      0.1103
     52 H         121.9777  155.4928  142.6792 H       1  UNL111      0.1103
     53 H         125.4104  155.9879  147.6252 H       1  UNL111      0.0319
     54 H         126.4023  154.9257  148.6422 H       1  UNL111      0.0319
     55 H         124.8518  155.5395  149.2445 H       1  UNL111      0.0319
     56 H         123.8573  149.0469  148.0420 H       1  UNL111      0.0890
     57 H         124.6186  150.1821  143.9693 H       1  UNL111      0.0890
     58 H         114.1589  155.0228  146.9618 H       1  UNL111      0.0893
     59 H         114.2161  150.6986  146.7384 H       1  UNL111      0.0893
     60 H         124.7414  148.5060  145.7908 H       1  UNL111      0.0876
     61 H         111.7871  155.0064  146.3023 H       1  UNL111      0.0876
     62 H         111.8439  150.7211  146.0782 H       1  UNL111      0.0876
     63 H         110.6251  152.8653  145.8572 H       1  UNL111      0.0874
@<TRIPOS>UNITY_ATOM_ATTR
4 1
charge 1
@<TRIPOS>BOND
     1     1    12    1
     2     1    21    1
     3     2    12    2
     4     3    15    2
     5     4     9    1
     6     4    10    1
     7     4    13    1
     8     5     6    1
     9     5    14    1
    10     5    15   am
    11     6     7    1
    12     6     8    1
    13     6    12    1
    14     7     9    1
    15     7    11    1
    16     8    10    1
    17    13    16    1
    18    14    18   ar
    19    14    19   ar
    20    15    17    1
    21    16    20    1
    22    17    22    1
    23    18    23   ar
    24    19    24   ar
    25    20    25   ar
    26    20    26   ar
    27    23    27   ar
    28    24    27   ar
    29    25    28   ar
    30    26    29   ar
    31    28    30   ar
    32    29    30   ar
    33     4    31    1
    34     7    32    1
    35     8    33    1
    36     8    34    1
    37     9    35    1
    38     9    36    1
    39    10    37    1
    40    10    38    1
    41    11    39    1
    42    11    40    1
    43    11    41    1
    44    13    42    1
    45    13    43    1
    46    16    44    1
    47    16    45    1
    48    17    46    1
    49    17    47    1
    50    18    48    1
    51    19    49    1
    52    21    50    1
    53    21    51    1
    54    21    52    1
    55    22    53    1
    56    22    54    1
    57    22    55    1
    58    23    56    1
    59    24    57    1
    60    25    58    1
    61    26    59    1
    62    27    60    1
    63    28    61    1
    64    29    62    1
    65    30    63    1
@<TRIPOS>MOLECULE
65499
 63 65 0 0 0
SMALL
GASTEIGER

@<TRIPOS>ATOM
      1 O         117.3243  154.5942  144.4475 O.3     1  UNL111     -0.5241
      2 O         119.4859  155.2638  144.7370 O.2     1  UNL111     -0.3270
      3 O         116.6217  155.3270  147.3327 O.2     1  UNL111     -0.3812
      4 N         121.5199  153.3033  146.8224 N.4     1  UNL111      0.4280
      5 N         117.1637  153.1975  146.6694 N.am    1  UNL111     -0.2511
      6 C         118.5758  153.6127  146.3031 C.3     1  UNL111      0.1433
      7 C         119.3128  154.2808  147.5229 C.3     1  UNL111      0.0033
      8 C         119.4394  152.4191  145.7927 C.3     1  UNL111      0.0018
      9 C         120.8010  154.5559  147.2614 C.3     1  UNL111     -0.0284
     10 C         120.9102  152.7409  145.5682 C.3     1  UNL111     -0.0299
     11 C         119.1625  153.4724  148.8256 C.3     1  UNL111     -0.0494
     12 C         118.5097  154.6198  145.1104 C.2     1  UNL111      0.2502
     13 C         123.0165  153.5806  146.6612 C.3     1  UNL111     -0.0354
     14 C         116.7436  151.8625  146.4411 C.3     1  UNL111      0.0038
     15 C         116.2665  154.1591  147.1626 C.2     1  UNL111      0.1570
     16 C         123.8283  152.2827  146.7076 C.3     1  UNL111     -0.0312
     17 C         114.8396  153.7110  147.4627 C.3     1  UNL111      0.0345
     18 C         116.3633  151.4539  145.1592 C.3     1  UNL111     -0.0543
     19 C         116.7075  150.9544  147.5040 C.3     1  UNL111     -0.0543
     20 C         125.3005  152.5676  146.5692 C.3     1  UNL111     -0.0753
     21 C         117.2260  155.5094  143.3530 C.3     1  UNL111      0.0468
     22 C         113.9589  154.8607  147.9247 C.3     1  UNL111     -0.0445
     23 C         115.9635  150.1355  144.9397 C.3     1  UNL111     -0.0786
     24 C         116.3094  149.6363  147.2791 C.3     1  UNL111     -0.0786
     25 C         125.8995  152.5969  145.3017 C.3     1  UNL111     -0.0811
     26 C         126.0839  152.8374  147.6998 C.3     1  UNL111     -0.0811
     27 C         115.9408  149.2274  145.9978 C.3     1  UNL111     -0.0844
     28 C         127.2579  152.8866  145.1698 C.3     1  UNL111     -0.0857
     29 C         127.4421  153.1277  147.5631 C.3     1  UNL111     -0.0857
     30 C         128.0281  153.1527  146.2995 C.3     1  UNL111     -0.0868
     31 H         121.4322  152.6096  147.5772 H       1  UNL111      0.1328
     32 H         118.8802  155.2683  147.7181 H       1  UNL111      0.0694
     33 H         119.0443  152.0418  144.8414 H       1  UNL111      0.0648
     34 H         119.3907  151.5858  146.5048 H       1  UNL111      0.0648
     35 H         120.9753  155.3242  146.5038 H       1  UNL111      0.0764
     36 H         121.2881  154.8955  148.1835 H       1  UNL111      0.0764
     37 H         121.4428  151.8161  145.3280 H       1  UNL111      0.0753
     38 H         121.0793  153.4510  144.7541 H       1  UNL111      0.0753
     39 H         119.5070  152.4402  148.7147 H       1  UNL111      0.0322
     40 H         118.1221  153.4470  149.1622 H       1  UNL111      0.0322
     41 H         119.7406  153.9313  149.6353 H       1  UNL111      0.0322
     42 H         123.3119  154.2312  147.4929 H       1  UNL111      0.0751
     43 H         123.1521  154.1312  145.7231 H       1  UNL111      0.0751
     44 H         123.5253  151.5936  145.9117 H       1  UNL111      0.0589
     45 H         123.6438  151.7537  147.6512 H       1  UNL111      0.0589
     46 H         114.8628  152.9510  148.2498 H       1  UNL111      0.0735
     47 H         114.4022  153.2739  146.5592 H       1  UNL111      0.0735
     48 H         116.3519  152.1542  144.3284 H       1  UNL111      0.0994
     49 H         116.9775  151.2606  148.5107 H       1  UNL111      0.0994
     50 H         116.2261  155.4136  142.9211 H       1  UNL111      0.1103
     51 H         117.9627  155.2623  142.5824 H       1  UNL111      0.1103
     52 H         117.3581  156.5379  143.7024 H       1  UNL111      0.1103
     53 H         114.3518  155.3134  148.8411 H       1  UNL111      0.0319
     54 H         112.9441  154.5048  148.1279 H       1  UNL111      0.0319
     55 H         113.9007  155.6431  147.1609 H       1  UNL111      0.0319
     56 H         115.6548  149.8168  143.9463 H       1  UNL111      0.0890
     57 H         116.2730  148.9276  148.1037 H       1  UNL111      0.0890
     58 H         125.3237  152.3861  144.4031 H       1  UNL111      0.0893
     59 H         125.6548  152.8169  148.6993 H       1  UNL111      0.0893
     60 H         115.6191  148.2020  145.8260 H       1  UNL111      0.0876
     61 H         127.7211  152.9001  144.1855 H       1  UNL111      0.0876
     62 H         128.0495  153.3296  148.4428 H       1  UNL111      0.0876
     63 H         129.0881  153.3736  146.1953 H       1  UNL111      0.0874
@<TRIPOS>UNITY_ATOM_ATTR
4 1
charge 1
@<TRIPOS>BOND
     1     1    12    1
     2     1    21    1
     3     2    12    2
     4     3    15    2
     5     4     9    1
     6     4    10    1
     7     4    13    1
     8     5     6    1
     9     5    14    1
    10     5    15   am
    11     6     7    1
    12     6     8    1
    13     6    12    1
    14     7     9    1
    15     7    11    1
    16     8    10    1
    17    13    16    1
    18    14    18   ar
    19    14    19   ar
    20    15    17    1
    21    16    20    1
    22    17    22    1
    23    18    23   ar
    24    19    24   ar
    25    20    25   ar
    26    20    26   ar
    27    23    27   ar
    28    24    27   ar
    29    25    28   ar
    30    26    29   ar
    31    28    30   ar
    32    29    30   ar
    33     4    31    1
    34     7    32    1
    35     8    33    1
    36     8    34    1
    37     9    35    1
    38     9    36    1
    39    10    37    1
    40    10    38    1
    41    11    39    1
    42    11    40    1
    43    11    41    1
    44    13    42    1
    45    13    43    1
    46    16    44    1
    47    16    45    1
    48    17    46    1
    49    17    47    1
    50    18    48    1
    51    19    49    1
    52    21    50    1
    53    21    51    1
    54    21    52    1
    55    22    53    1
    56    22    54    1
    57    22    55    1
    58    23    56    1
    59    24    57    1
    60    25    58    1
    61    26    59    1
    62    27    60    1
    63    28    61    1
    64    29    62    1
    65    30    63    1
@<TRIPOS>MOLECULE
123642
 63 65 0 0 0
SMALL
GASTEIGER

@<TRIPOS>ATOM
      1 O         116.9178  150.7383  148.1086 O.3     1  UNL111     -0.5241
      2 O         116.1929  151.0320  145.9585 O.2     1  UNL111     -0.3270
      3 O         118.5146  152.7329  143.7956 O.2     1  UNL111     -0.3812
      4 N         121.2397  152.3599  146.9741 N.4     1  UNL111      0.4280
      5 N         117.8102  153.3510  145.9076 N.am    1  UNL111     -0.2511
      6 C         118.2841  152.1035  146.6644 C.3     1  UNL111      0.1433
      7 C         119.3059  151.1908  145.8888 C.3     1  UNL111      0.0033
      8 C         118.9760  152.4878  148.0048 C.3     1  UNL111      0.0018
      9 C         120.6230  151.9385  145.6529 C.3     1  UNL111     -0.0284
     10 C         120.2889  153.2207  147.7758 C.3     1  UNL111     -0.0299
     11 C         119.5882  149.8237  146.5541 C.3     1  UNL111     -0.0494
     12 C         117.0057  151.2485  146.8483 C.2     1  UNL111      0.2502
     13 C         122.5751  153.0796  146.7850 C.3     1  UNL111     -0.0354
     14 C         117.2562  154.4512  146.6480 C.3     1  UNL111      0.0038
     15 C         117.7330  153.3723  144.5006 C.2     1  UNL111      0.1570
     16 C         123.6833  152.1086  146.3680 C.3     1  UNL111     -0.0312
     17 C         116.6532  154.2455  143.8613 C.3     1  UNL111      0.0345
     18 C         117.7253  155.7471  146.3788 C.3     1  UNL111     -0.0543
     19 C         116.2873  154.2814  147.6432 C.3     1  UNL111     -0.0543
     20 C         125.0129  152.8148  146.3152 C.3     1  UNL111     -0.0753
     21 C         115.7640  149.9197  148.3303 C.3     1  UNL111      0.0468
     22 C         116.3045  153.7726  142.4583 C.3     1  UNL111     -0.0445
     23 C         117.2423  156.8448  147.0937 C.3     1  UNL111     -0.0786
     24 C         115.8032  155.3824  148.3561 C.3     1  UNL111     -0.0786
     25 C         125.4223  153.4681  145.1442 C.3     1  UNL111     -0.0811
     26 C         125.8414  152.8576  147.4453 C.3     1  UNL111     -0.0811
     27 C         116.2825  156.6611  148.0841 C.3     1  UNL111     -0.0844
     28 C         126.6396  154.1491  145.1054 C.3     1  UNL111     -0.0857
     29 C         127.0577  153.5404  147.4021 C.3     1  UNL111     -0.0857
     30 C         127.4556  154.1862  146.2337 C.3     1  UNL111     -0.0868
     31 H         121.4443  151.5179  147.5283 H       1  UNL111      0.1328
     32 H         118.8849  150.9035  144.9201 H       1  UNL111      0.0694
     33 H         119.1781  151.5967  148.6113 H       1  UNL111      0.0648
     34 H         118.3359  153.0991  148.6464 H       1  UNL111      0.0648
     35 H         121.3410  151.2865  145.1473 H       1  UNL111      0.0764
     36 H         120.5083  152.8507  145.0626 H       1  UNL111      0.0764
     37 H         120.1612  154.1637  147.2356 H       1  UNL111      0.0753
     38 H         120.7741  153.4240  148.7366 H       1  UNL111      0.0753
     39 H         119.9895  149.9059  147.5666 H       1  UNL111      0.0322
     40 H         120.3172  149.2600  145.9605 H       1  UNL111      0.0322
     41 H         118.6818  149.2118  146.6005 H       1  UNL111      0.0322
     42 H         122.8234  153.5362  147.7505 H       1  UNL111      0.0751
     43 H         122.4200  153.8792  146.0513 H       1  UNL111      0.0751
     44 H         123.4773  151.6683  145.3861 H       1  UNL111      0.0589
     45 H         123.7407  151.2693  147.0724 H       1  UNL111      0.0589
     46 H         117.0140  155.2763  143.8023 H       1  UNL111      0.0735
     47 H         115.7443  154.2192  144.4711 H       1  UNL111      0.0735
     48 H         118.4825  155.9212  145.6174 H       1  UNL111      0.0994
     49 H         115.8474  153.3145  147.8626 H       1  UNL111      0.0994
     50 H         115.7904  149.5736  149.3671 H       1  UNL111      0.1103
     51 H         115.7842  149.0462  147.6713 H       1  UNL111      0.1103
     52 H         114.8489  150.5010  148.1808 H       1  UNL111      0.1103
     53 H         117.1698  153.8426  141.7908 H       1  UNL111      0.0319
     54 H         115.5017  154.3864  142.0384 H       1  UNL111      0.0319
     55 H         115.9712  152.7295  142.4682 H       1  UNL111      0.0319
     56 H         117.6076  157.8457  146.8732 H       1  UNL111      0.0890
     57 H         115.0348  155.2447  149.1146 H       1  UNL111      0.0890
     58 H         124.8087  153.4480  144.2458 H       1  UNL111      0.0893
     59 H         125.5599  152.3552  148.3681 H       1  UNL111      0.0893
     60 H         115.8950  157.5165  148.6340 H       1  UNL111      0.0876
     61 H         126.9584  154.6472  144.1922 H       1  UNL111      0.0876
     62 H         127.7025  153.5650  148.2780 H       1  UNL111      0.0876
     63 H         128.4070  154.7126  146.1998 H       1  UNL111      0.0874
@<TRIPOS>UNITY_ATOM_ATTR
4 1
charge 1
@<TRIPOS>BOND
     1     1    12    1
     2     1    21    1
     3     2    12    2
     4     3    15    2
     5     4     9    1
     6     4    10    1
     7     4    13    1
     8     5     6    1
     9     5    14    1
    10     5    15   am
    11     6     7    1
    12     6     8    1
    13     6    12    1
    14     7     9    1
    15     7    11    1
    16     8    10    1
    17    13    16    1
    18    14    18   ar
    19    14    19   ar
    20    15    17    1
    21    16    20    1
    22    17    22    1
    23    18    23   ar
    24    19    24   ar
    25    20    25   ar
    26    20    26   ar
    27    23    27   ar
    28    24    27   ar
    29    25    28   ar
    30    26    29   ar
    31    28    30   ar
    32    29    30   ar
    33     4    31    1
    34     7    32    1
    35     8    33    1
    36     8    34    1
    37     9    35    1
    38     9    36    1
    39    10    37    1
    40    10    38    1
    41    11    39    1
    42    11    40    1
    43    11    41    1
    44    13    42    1
    45    13    43    1
    46    16    44    1
    47    16    45    1
    48    17    46    1
    49    17    47    1
    50    18    48    1
    51    19    49    1
    52    21    50    1
    53    21    51    1
    54    21    52    1
    55    22    53    1
    56    22    54    1
    57    22    55    1
    58    23    56    1
    59    24    57    1
    60    25    58    1
    61    26    59    1
    62    27    60    1
    63    28    61    1
    64    29    62    1
    65    30    63    1
