@<TRIPOS>MOLECULE
3955
 68 71 0 0 0
SMALL
GASTEIGER

@<TRIPOS>ATOM
      1 CL        129.6963  154.1535  146.7696 Cl      1  UNL111     -0.1313
      2 O         123.8092  151.0521  146.8630 O.3     1  UNL111     -0.4383
      3 O         117.2130  152.1496  143.8849 O.2     1  UNL111     -0.3768
      4 N         121.0192  152.8964  145.9244 N.4     1  UNL111      0.4276
      5 N         116.6884  154.3408  143.7484 N.am    1  UNL111     -0.3344
      6 C         123.8741  152.4466  146.5397 C.3     1  UNL111      0.0418
      7 C         123.3520  152.6183  145.1032 C.3     1  UNL111     -0.0202
      8 C         122.9099  153.1523  147.5083 C.3     1  UNL111     -0.0202
      9 C         121.9144  152.1454  144.9564 C.3     1  UNL111     -0.0330
     10 C         121.4771  152.6600  147.3457 C.3     1  UNL111     -0.0330
     11 C         119.5593  152.5028  145.6929 C.3     1  UNL111     -0.0336
     12 C         118.6082  153.5607  146.2867 C.3     1  UNL111     -0.0126
     13 C         117.0811  153.2170  146.0765 C.3     1  UNL111      0.0988
     14 C         125.3324  152.9008  146.6310 C.3     1  UNL111     -0.0401
     15 C         116.8060  151.8313  146.7631 C.3     1  UNL111     -0.0360
     16 C         116.0895  154.2094  146.7354 C.3     1  UNL111     -0.0360
     17 C         116.9390  153.1942  144.4958 C.2     1  UNL111      0.1641
     18 C         126.3201  152.2025  145.9033 C.3     1  UNL111     -0.0635
     19 C         125.7502  153.9937  147.4091 C.3     1  UNL111     -0.0635
     20 C         117.1873  151.6208  148.1082 C.3     1  UNL111     -0.0735
     21 C         114.7119  154.0943  146.4502 C.3     1  UNL111     -0.0735
     22 C         116.1029  150.7906  146.1304 C.3     1  UNL111     -0.0735
     23 C         116.4839  155.1975  147.6564 C.3     1  UNL111     -0.0735
     24 C         127.6639  152.5857  145.9447 C.3     1  UNL111     -0.0488
     25 C         127.0964  154.3778  147.4504 C.3     1  UNL111     -0.0488
     26 C         128.0469  153.6747  146.7176 C.3     1  UNL111      0.0164
     27 C         116.9402  150.4080  148.7575 C.3     1  UNL111     -0.0847
     28 C         113.7765  154.9501  147.0345 C.3     1  UNL111     -0.0847
     29 C         115.8602  149.5757  146.7797 C.3     1  UNL111     -0.0847
     30 C         115.5438  156.0533  148.2392 C.3     1  UNL111     -0.0847
     31 C         116.6777  155.7220  144.2142 C.3     1  UNL111     -0.0122
     32 C         116.3733  154.1836  142.3314 C.3     1  UNL111     -0.0122
     33 C         116.2865  149.3809  148.0883 C.3     1  UNL111     -0.0866
     34 C         114.1934  155.9320  147.9259 C.3     1  UNL111     -0.0866
     35 H         124.6136  150.8101  147.3634 H       1  UNL111      0.2420
     36 H         121.1023  153.8967  145.7035 H       1  UNL111      0.1324
     37 H         123.9564  152.0370  144.3959 H       1  UNL111      0.0619
     38 H         123.4285  153.6700  144.7965 H       1  UNL111      0.0619
     39 H         122.9261  154.2383  147.3496 H       1  UNL111      0.0619
     40 H         123.2139  152.9670  148.5465 H       1  UNL111      0.0619
     41 H         121.5551  152.3628  143.9447 H       1  UNL111      0.0751
     42 H         121.8002  151.0740  145.1559 H       1  UNL111      0.0751
     43 H         121.3684  151.5921  147.5646 H       1  UNL111      0.0751
     44 H         120.8193  153.2281  148.0084 H       1  UNL111      0.0751
     45 H         119.4276  151.5042  146.1195 H       1  UNL111      0.0744
     46 H         119.4473  152.4515  144.6083 H       1  UNL111      0.0744
     47 H         118.8445  154.5279  145.8270 H       1  UNL111      0.0590
     48 H         118.8310  153.6820  147.3504 H       1  UNL111      0.0590
     49 H         126.0536  151.3407  145.2916 H       1  UNL111      0.0932
     50 H         125.0539  154.5780  148.0047 H       1  UNL111      0.0932
     51 H         117.6468  152.4134  148.6934 H       1  UNL111      0.0907
     52 H         114.3472  153.3277  145.7675 H       1  UNL111      0.0907
     53 H         115.7089  150.8938  145.1216 H       1  UNL111      0.0907
     54 H         117.5205  155.3326  147.9466 H       1  UNL111      0.0907
     55 H         128.4042  152.0304  145.3730 H       1  UNL111      0.0992
     56 H         127.3977  155.2281  148.0587 H       1  UNL111      0.0992
     57 H         117.2329  150.2734  149.7962 H       1  UNL111      0.0877
     58 H         112.7198  154.8426  146.7996 H       1  UNL111      0.0877
     59 H         115.3189  148.7857  146.2631 H       1  UNL111      0.0877
     60 H         115.8630  156.8139  148.9483 H       1  UNL111      0.0877
     61 H         117.2675  155.8561  145.1174 H       1  UNL111      0.0648
     62 H         115.6431  156.0331  144.3808 H       1  UNL111      0.0648
     63 H         117.1187  156.3614  143.4423 H       1  UNL111      0.0648
     64 H         116.2163  153.1395  142.0490 H       1  UNL111      0.0648
     65 H         117.2011  154.5914  141.7438 H       1  UNL111      0.0648
     66 H         115.4582  154.7412  142.1090 H       1  UNL111      0.0648
     67 H         116.0806  148.4405  148.5937 H       1  UNL111      0.0874
     68 H         113.4637  156.5944  148.3856 H       1  UNL111      0.0874
@<TRIPOS>UNITY_ATOM_ATTR
4 1
charge 1
@<TRIPOS>BOND
     1     1    26    1
     2     2     6    1
     3     3    17    2
     4     4     9    1
     5     4    10    1
     6     4    11    1
     7     5    17   am
     8     5    31    1
     9     5    32    1
    10     6     7    1
    11     6     8    1
    12     6    14    1
    13     7     9    1
    14     8    10    1
    15    11    12    1
    16    12    13    1
    17    13    15    1
    18    13    16    1
    19    13    17    1
    20    14    18   ar
    21    14    19   ar
    22    15    20   ar
    23    15    22   ar
    24    16    21   ar
    25    16    23   ar
    26    18    24   ar
    27    19    25   ar
    28    20    27   ar
    29    21    28   ar
    30    22    29   ar
    31    23    30   ar
    32    24    26   ar
    33    25    26   ar
    34    27    33   ar
    35    28    34   ar
    36    29    33   ar
    37    30    34   ar
    38     2    35    1
    39     4    36    1
    40     7    37    1
    41     7    38    1
    42     8    39    1
    43     8    40    1
    44     9    41    1
    45     9    42    1
    46    10    43    1
    47    10    44    1
    48    11    45    1
    49    11    46    1
    50    12    47    1
    51    12    48    1
    52    18    49    1
    53    19    50    1
    54    20    51    1
    55    21    52    1
    56    22    53    1
    57    23    54    1
    58    24    55    1
    59    25    56    1
    60    27    57    1
    61    28    58    1
    62    29    59    1
    63    30    60    1
    64    31    61    1
    65    31    62    1
    66    31    63    1
    67    32    64    1
    68    32    65    1
    69    32    66    1
    70    33    67    1
    71    34    68    1
@<TRIPOS>MOLECULE
9805944
 65 68 0 0 0
SMALL
GASTEIGER

@<TRIPOS>ATOM
      1 CL        129.5396  152.0473  146.5118 Cl      1  UNL111     -0.1313
      2 O         123.6629  155.1153  147.0266 O.3     1  UNL111     -0.4383
      3 O         117.9329  152.3892  143.9178 O.2     1  UNL111     -0.3779
      4 N         120.8440  153.4174  145.9930 N.4     1  UNL111      0.4276
      5 N         115.7019  151.9713  144.1235 N.am    1  UNL111     -0.3274
      6 C         123.7346  153.8194  146.4169 C.3     1  UNL111      0.0418
      7 C         123.0726  153.9599  145.0363 C.3     1  UNL111     -0.0202
      8 C         122.8990  152.8519  147.2708 C.3     1  UNL111     -0.0202
      9 C         121.6205  154.4060  145.1494 C.3     1  UNL111     -0.0330
     10 C         121.4460  153.2871  147.3695 C.3     1  UNL111     -0.0330
     11 C         119.3654  153.7959  146.0326 C.3     1  UNL111     -0.0336
     12 C         118.5231  152.6149  146.5505 C.3     1  UNL111     -0.0128
     13 C         116.9930  152.6838  146.1630 C.3     1  UNL111      0.0981
     14 C         125.1979  153.3747  146.3972 C.3     1  UNL111     -0.0401
     15 C         116.5287  154.1310  146.4766 C.3     1  UNL111     -0.0362
     16 C         116.1771  151.6194  146.9567 C.3     1  UNL111     -0.0362
     17 C         116.9307  152.3230  144.6343 C.2     1  UNL111      0.1628
     18 C         125.9451  153.4097  147.5946 C.3     1  UNL111     -0.0635
     19 C         125.8480  152.9197  145.2380 C.3     1  UNL111     -0.0635
     20 C         116.5621  154.5972  147.8112 C.3     1  UNL111     -0.0735
     21 C         114.8401  151.8625  147.3404 C.3     1  UNL111     -0.0735
     22 C         116.1050  155.0270  145.4812 C.3     1  UNL111     -0.0735
     23 C         116.7117  150.3512  147.2521 C.3     1  UNL111     -0.0735
     24 C         127.2817  153.0029  147.6323 C.3     1  UNL111     -0.0488
     25 C         127.1873  152.5115  145.2759 C.3     1  UNL111     -0.0488
     26 C         127.8979  152.5530  146.4712 C.3     1  UNL111      0.0164
     27 C         116.1916  155.9030  148.1326 C.3     1  UNL111     -0.0847
     28 C         114.0906  150.8999  148.0202 C.3     1  UNL111     -0.0847
     29 C         115.7330  156.3347  145.8085 C.3     1  UNL111     -0.0847
     30 C         115.9601  149.3904  147.9362 C.3     1  UNL111     -0.0847
     31 C         115.7788  156.7723  147.1297 C.3     1  UNL111     -0.0866
     32 C         114.6530  149.6660  148.3232 C.3     1  UNL111     -0.0866
     33 C         115.5249  151.6054  142.7394 C.3     1  UNL111     -0.0132
     34 H         124.5354  155.5474  146.9356 H       1  UNL111      0.2420
     35 H         120.8938  152.5094  145.5098 H       1  UNL111      0.1324
     36 H         114.8954  151.9131  144.7347 H       1  UNL111      0.1835
     37 H         123.1056  153.0082  144.4907 H       1  UNL111      0.0619
     38 H         123.6086  154.7035  144.4327 H       1  UNL111      0.0619
     39 H         123.2900  152.7978  148.2944 H       1  UNL111      0.0619
     40 H         122.9545  151.8366  146.8563 H       1  UNL111      0.0619
     41 H         121.5159  155.3951  145.6087 H       1  UNL111      0.0751
     42 H         121.1572  154.4208  144.1568 H       1  UNL111      0.0751
     43 H         120.8740  152.5292  147.9124 H       1  UNL111      0.0751
     44 H         121.3338  154.2511  147.8779 H       1  UNL111      0.0751
     45 H         119.0982  154.0897  145.0153 H       1  UNL111      0.0744
     46 H         119.2833  154.6763  146.6791 H       1  UNL111      0.0744
     47 H         118.6254  152.5675  147.6428 H       1  UNL111      0.0590
     48 H         118.9557  151.6815  146.1662 H       1  UNL111      0.0590
     49 H         125.4910  153.7606  148.5211 H       1  UNL111      0.0932
     50 H         125.3434  152.8670  144.2769 H       1  UNL111      0.0932
     51 H         116.8590  153.9354  148.6245 H       1  UNL111      0.0907
     52 H         114.3492  152.8088  147.1151 H       1  UNL111      0.0907
     53 H         116.0489  154.7393  144.4332 H       1  UNL111      0.0907
     54 H         117.7151  150.0681  146.9474 H       1  UNL111      0.0907
     55 H         127.8338  153.0397  148.5687 H       1  UNL111      0.0992
     56 H         127.6714  152.1613  144.3666 H       1  UNL111      0.0992
     57 H         116.2115  156.2381  149.1675 H       1  UNL111      0.0877
     58 H         113.0641  151.1143  148.3105 H       1  UNL111      0.0877
     59 H         115.3971  157.0157  145.0287 H       1  UNL111      0.0877
     60 H         116.3926  148.4176  148.1601 H       1  UNL111      0.0877
     61 H         115.4794  157.7881  147.3788 H       1  UNL111      0.0874
     62 H         114.0692  148.9160  148.8517 H       1  UNL111      0.0874
     63 H         115.5229  152.5154  142.1343 H       1  UNL111      0.0636
     64 H         114.5691  151.0868  142.6344 H       1  UNL111      0.0636
     65 H         116.3401  150.9522  142.4161 H       1  UNL111      0.0636
@<TRIPOS>UNITY_ATOM_ATTR
4 1
charge 1
@<TRIPOS>BOND
     1     1    26    1
     2     2     6    1
     3     3    17    2
     4     4     9    1
     5     4    10    1
     6     4    11    1
     7     5    17   am
     8     5    33    1
     9     6     7    1
    10     6     8    1
    11     6    14    1
    12     7     9    1
    13     8    10    1
    14    11    12    1
    15    12    13    1
    16    13    15    1
    17    13    16    1
    18    13    17    1
    19    14    18   ar
    20    14    19   ar
    21    15    20   ar
    22    15    22   ar
    23    16    21   ar
    24    16    23   ar
    25    18    24   ar
    26    19    25   ar
    27    20    27   ar
    28    21    28   ar
    29    22    29   ar
    30    23    30   ar
    31    24    26   ar
    32    25    26   ar
    33    27    31   ar
    34    28    32   ar
    35    29    31   ar
    36    30    32   ar
    37     2    34    1
    38     4    35    1
    39     5    36    1
    40     7    37    1
    41     7    38    1
    42     8    39    1
    43     8    40    1
    44     9    41    1
    45     9    42    1
    46    10    43    1
    47    10    44    1
    48    11    45    1
    49    11    46    1
    50    12    47    1
    51    12    48    1
    52    18    49    1
    53    19    50    1
    54    20    51    1
    55    21    52    1
    56    22    53    1
    57    23    54    1
    58    24    55    1
    59    25    56    1
    60    27    57    1
    61    28    58    1
    62    29    59    1
    63    30    60    1
    64    31    61    1
    65    32    62    1
    66    33    63    1
    67    33    64    1
    68    33    65    1
@<TRIPOS>MOLECULE
71421
 68 71 0 0 0
SMALL
GASTEIGER

@<TRIPOS>ATOM
      1 CL        110.0225  153.1654  145.6264 Cl      1  UNL1111    -0.1313
      2 O         118.7987  153.7008  145.0529 O.co2   1  UNL1111    -0.7568
      3 O         116.0249  152.9121  148.4330 O.3     1  UNL1111    -0.4383
      4 O         122.7378  153.6668  148.8465 O.2     1  UNL1111    -0.3768
      5 N         118.8399  153.5100  146.4123 N.3     1  UNL1111     0.4024
      6 N         122.9114  151.4230  148.6017 N.am    1  UNL1111    -0.3344
      7 C         115.9355  153.1434  147.0138 C.3     1  UNL1111     0.0415
      8 C         118.2575  152.1557  146.7619 C.3     1  UNL1111    -0.0515
      9 C         118.0181  154.5837  147.1038 C.3     1  UNL1111    -0.0515
     10 C         116.7906  152.0487  146.3541 C.3     1  UNL1111    -0.0229
     11 C         116.5440  154.5239  146.7222 C.3     1  UNL1111    -0.0229
     12 C         120.2843  153.6188  146.9062 C.3     1  UNL1111    -0.0521
     13 C         121.2693  152.6995  146.1593 C.3     1  UNL1111    -0.0153
     14 C         122.7834  152.9701  146.4953 C.3     1  UNL1111     0.0986
     15 C         114.4501  153.1223  146.6354 C.3     1  UNL1111    -0.0402
     16 C         123.7786  152.0639  145.7119 C.3     1  UNL1111    -0.0360
     17 C         123.1776  154.4404  146.1071 C.3     1  UNL1111    -0.0360
     18 C         122.8499  152.7114  148.0631 C.2     1  UNL1111     0.1641
     19 C         113.9436  152.3727  145.5609 C.3     1  UNL1111    -0.0635
     20 C         113.5358  153.8944  147.3830 C.3     1  UNL1111    -0.0635
     21 C         125.1025  151.9046  146.1739 C.3     1  UNL1111    -0.0735
     22 C         122.6556  155.0571  144.9507 C.3     1  UNL1111    -0.0735
     23 C         123.4350  151.4338  144.5014 C.3     1  UNL1111    -0.0735
     24 C         124.1451  155.1637  146.8329 C.3     1  UNL1111    -0.0735
     25 C         112.5784  152.3866  145.2512 C.3     1  UNL1111    -0.0488
     26 C         112.1725  153.9091  147.0753 C.3     1  UNL1111    -0.0488
     27 C         111.6991  153.1528  146.0095 C.3     1  UNL1111     0.0164
     28 C         126.0246  151.1166  145.4810 C.3     1  UNL1111    -0.0847
     29 C         123.0390  156.3486  144.5750 C.3     1  UNL1111    -0.0847
     30 C         124.3598  150.6452  143.8096 C.3     1  UNL1111    -0.0847
     31 C         124.5287  156.4548  146.4564 C.3     1  UNL1111    -0.0847
     32 C         122.8369  150.1541  147.8875 C.3     1  UNL1111    -0.0122
     33 C         123.0839  151.2877  150.0434 C.3     1  UNL1111    -0.0122
     34 C         125.6511  150.4825  144.3013 C.3     1  UNL1111    -0.0866
     35 C         123.9714  157.0495  145.3306 C.3     1  UNL1111    -0.0866
     36 H         115.2846  152.3276  148.6782 H       1  UNL1111     0.2420
     37 H         118.4006  152.0123  147.8383 H       1  UNL1111     0.0718
     38 H         118.8435  151.4101  146.2164 H       1  UNL1111     0.0718
     39 H         118.4499  155.5444  146.8008 H       1  UNL1111     0.0718
     40 H         118.1650  154.4491  148.1815 H       1  UNL1111     0.0718
     41 H         116.7273  152.1151  145.2615 H       1  UNL1111     0.0617
     42 H         116.4272  151.0548  146.6447 H       1  UNL1111     0.0617
     43 H         116.0257  155.3066  147.2898 H       1  UNL1111     0.0617
     44 H         116.4240  154.7686  145.6590 H       1  UNL1111     0.0617
     45 H         120.2475  153.3951  147.9773 H       1  UNL1111     0.0711
     46 H         120.5442  154.6730  146.7716 H       1  UNL1111     0.0711
     47 H         121.0830  152.7857  145.0852 H       1  UNL1111     0.0589
     48 H         121.0114  151.6641  146.3992 H       1  UNL1111     0.0589
     49 H         114.5935  151.7688  144.9325 H       1  UNL1111     0.0932
     50 H         113.8869  154.4983  148.2193 H       1  UNL1111     0.0932
     51 H         125.4342  152.3986  147.0852 H       1  UNL1111     0.0907
     52 H         121.9380  154.5484  144.3108 H       1  UNL1111     0.0907
     53 H         122.4485  151.5474  144.0605 H       1  UNL1111     0.0907
     54 H         124.6203  154.7364  147.7129 H       1  UNL1111     0.0907
     55 H         112.2124  151.8001  144.4122 H       1  UNL1111     0.0992
     56 H         111.4918  154.5142  147.6680 H       1  UNL1111     0.0992
     57 H         127.0380  151.0094  145.8589 H       1  UNL1111     0.0877
     58 H         122.6080  156.8006  143.6852 H       1  UNL1111     0.0877
     59 H         124.0714  150.1688  142.8757 H       1  UNL1111     0.0877
     60 H         125.2672  156.9918  147.0457 H       1  UNL1111     0.0877
     61 H         122.4618  150.2461  146.8736 H       1  UNL1111     0.0648
     62 H         122.1574  149.4870  148.4282 H       1  UNL1111     0.0648
     63 H         123.8337  149.7040  147.8705 H       1  UNL1111     0.0648
     64 H         123.2873  152.2393  150.5403 H       1  UNL1111     0.0648
     65 H         123.9249  150.6143  150.2365 H       1  UNL1111     0.0648
     66 H         122.1702  150.8572  150.4641 H       1  UNL1111     0.0648
     67 H         126.3697  149.8766  143.7562 H       1  UNL1111     0.0874
     68 H         124.2694  158.0520  145.0373 H       1  UNL1111     0.0874
@<TRIPOS>UNITY_ATOM_ATTR
2 1
charge -1
5 1
charge 1
@<TRIPOS>BOND
     1     1    27    1
     2     2     5    1
     3     3     7    1
     4     4    18    2
     5     5     8    1
     6     5     9    1
     7     5    12    1
     8     6    18   am
     9     6    32    1
    10     6    33    1
    11     7    10    1
    12     7    11    1
    13     7    15    1
    14     8    10    1
    15     9    11    1
    16    12    13    1
    17    13    14    1
    18    14    16    1
    19    14    17    1
    20    14    18    1
    21    15    19   ar
    22    15    20   ar
    23    16    21   ar
    24    16    23   ar
    25    17    22   ar
    26    17    24   ar
    27    19    25   ar
    28    20    26   ar
    29    21    28   ar
    30    22    29   ar
    31    23    30   ar
    32    24    31   ar
    33    25    27   ar
    34    26    27   ar
    35    28    34   ar
    36    29    35   ar
    37    30    34   ar
    38    31    35   ar
    39     3    36    1
    40     8    37    1
    41     8    38    1
    42     9    39    1
    43     9    40    1
    44    10    41    1
    45    10    42    1
    46    11    43    1
    47    11    44    1
    48    12    45    1
    49    12    46    1
    50    13    47    1
    51    13    48    1
    52    19    49    1
    53    20    50    1
    54    21    51    1
    55    22    52    1
    56    23    53    1
    57    24    54    1
    58    25    55    1
    59    26    56    1
    60    28    57    1
    61    29    58    1
    62    30    59    1
    63    31    60    1
    64    32    61    1
    65    32    62    1
    66    32    63    1
    67    33    64    1
    68    33    65    1
    69    33    66    1
    70    34    67    1
    71    35    68    1
@<TRIPOS>MOLECULE
3954
 68 71 0 0 0
SMALL
GASTEIGER

@<TRIPOS>ATOM
      1 CL        112.1999  150.3978  147.6914 Cl      1  UNL111     -0.1313
      2 O         115.7021  155.5222  145.3053 O.3     1  UNL111     -0.4383
      3 O         121.9174  153.9395  148.7518 O.2     1  UNL111     -0.3768
      4 N         119.1391  155.5178  145.7657 N.4     1  UNL111      0.4276
      5 N         123.7991  154.8837  147.9378 N.am    1  UNL111     -0.3344
      6 C         116.3685  154.4982  146.0602 C.3     1  UNL111      0.0418
      7 C         118.4330  154.8228  144.6250 C.3     1  UNL111     -0.0330
      8 C         118.1305  156.2187  146.6563 C.3     1  UNL111     -0.0330
      9 C         117.3941  153.8325  145.1273 C.3     1  UNL111     -0.0202
     10 C         117.1039  155.2303  147.1963 C.3     1  UNL111     -0.0202
     11 C         120.1261  154.6676  146.5584 C.3     1  UNL111     -0.0336
     12 C         121.3960  154.3688  145.7370 C.3     1  UNL111     -0.0126
     13 C         122.3461  153.3173  146.4337 C.3     1  UNL111      0.0988
     14 C         115.3251  153.4747  146.5114 C.3     1  UNL111     -0.0401
     15 C         123.6005  152.9253  145.6144 C.3     1  UNL111     -0.0360
     16 C         121.5247  151.9879  146.6095 C.3     1  UNL111     -0.0360
     17 C         122.7130  154.0274  147.8030 C.2     1  UNL111      0.1641
     18 C         115.2030  153.0374  147.8408 C.3     1  UNL111     -0.0635
     19 C         114.4410  152.9236  145.5586 C.3     1  UNL111     -0.0635
     20 C         123.7884  153.2922  144.2689 C.3     1  UNL111     -0.0735
     21 C         121.4691  151.2789  147.8227 C.3     1  UNL111     -0.0735
     22 C         124.5869  152.1134  146.2143 C.3     1  UNL111     -0.0735
     23 C         120.8650  151.4122  145.4995 C.3     1  UNL111     -0.0735
     24 C         114.2381  152.0889  148.2024 C.3     1  UNL111     -0.0488
     25 C         113.4773  151.9777  145.9195 C.3     1  UNL111     -0.0488
     26 C         113.3803  151.5628  147.2420 C.3     1  UNL111      0.0164
     27 C         124.9281  152.8890  143.5659 C.3     1  UNL111     -0.0847
     28 C         120.7278  150.0990  147.9421 C.3     1  UNL111     -0.0847
     29 C         125.7227  151.7119  145.5088 C.3     1  UNL111     -0.0847
     30 C         120.1273  150.2313  145.6194 C.3     1  UNL111     -0.0847
     31 C         124.6241  155.4428  146.8741 C.3     1  UNL111     -0.0122
     32 C         124.1881  155.2974  149.2823 C.3     1  UNL111     -0.0122
     33 C         125.8944  152.1028  144.1858 C.3     1  UNL111     -0.0866
     34 C         120.0488  149.5815  146.8450 C.3     1  UNL111     -0.0866
     35 H         114.7608  155.5348  145.5707 H       1  UNL111      0.2420
     36 H         119.6911  156.2760  145.3435 H       1  UNL111      0.1324
     37 H         119.1829  154.3289  144.0029 H       1  UNL111      0.0751
     38 H         117.9753  155.6115  144.0167 H       1  UNL111      0.0751
     39 H         117.6671  157.0051  146.0501 H       1  UNL111      0.0751
     40 H         118.6843  156.7063  147.4657 H       1  UNL111      0.0751
     41 H         116.8959  153.4156  144.2428 H       1  UNL111      0.0619
     42 H         117.8810  152.9900  145.6332 H       1  UNL111      0.0619
     43 H         117.6061  154.5196  147.8628 H       1  UNL111      0.0619
     44 H         116.3855  155.7923  147.8070 H       1  UNL111      0.0619
     45 H         119.5952  153.7709  146.8822 H       1  UNL111      0.0744
     46 H         120.3822  155.2686  147.4351 H       1  UNL111      0.0744
     47 H         121.9267  155.3156  145.5779 H       1  UNL111      0.0590
     48 H         121.1158  154.0233  144.7392 H       1  UNL111      0.0590
     49 H         115.8464  153.4116  148.6327 H       1  UNL111      0.0932
     50 H         114.4913  153.2294  144.5138 H       1  UNL111      0.0932
     51 H         123.0657  153.8966  143.7308 H       1  UNL111      0.0907
     52 H         122.0078  151.6119  148.7074 H       1  UNL111      0.0907
     53 H         124.4794  151.7769  147.2447 H       1  UNL111      0.0907
     54 H         120.9468  151.8501  144.5076 H       1  UNL111      0.0907
     55 H         114.1621  151.7637  149.2378 H       1  UNL111      0.0992
     56 H         112.8081  151.5699  145.1654 H       1  UNL111      0.0992
     57 H         125.0610  153.1818  142.5267 H       1  UNL111      0.0877
     58 H         120.6976  149.5737  148.8947 H       1  UNL111      0.0877
     59 H         126.4696  151.0854  145.9914 H       1  UNL111      0.0877
     60 H         119.6369  149.8008  144.7493 H       1  UNL111      0.0877
     61 H         124.1044  155.4570  145.9191 H       1  UNL111      0.0648
     62 H         125.5507  154.8677  146.8019 H       1  UNL111      0.0648
     63 H         124.8714  156.4801  147.1231 H       1  UNL111      0.0648
     64 H         123.6740  154.7261  150.0597 H       1  UNL111      0.0648
     65 H         123.9510  156.3586  149.4027 H       1  UNL111      0.0648
     66 H         125.2658  155.1477  149.4007 H       1  UNL111      0.0648
     67 H         126.7765  151.7850  143.6347 H       1  UNL111      0.0874
     68 H         119.4876  148.6548  146.9395 H       1  UNL111      0.0874
@<TRIPOS>UNITY_ATOM_ATTR
4 1
charge 1
@<TRIPOS>BOND
     1     1    26    1
     2     2     6    1
     3     3    17    2
     4     4     7    1
     5     4     8    1
     6     4    11    1
     7     5    17   am
     8     5    31    1
     9     5    32    1
    10     6     9    1
    11     6    10    1
    12     6    14    1
    13     7     9    1
    14     8    10    1
    15    11    12    1
    16    12    13    1
    17    13    15    1
    18    13    16    1
    19    13    17    1
    20    14    18   ar
    21    14    19   ar
    22    15    20   ar
    23    15    22   ar
    24    16    21   ar
    25    16    23   ar
    26    18    24   ar
    27    19    25   ar
    28    20    27   ar
    29    21    28   ar
    30    22    29   ar
    31    23    30   ar
    32    24    26   ar
    33    25    26   ar
    34    27    33   ar
    35    28    34   ar
    36    29    33   ar
    37    30    34   ar
    38     2    35    1
    39     4    36    1
    40     7    37    1
    41     7    38    1
    42     8    39    1
    43     8    40    1
    44     9    41    1
    45     9    42    1
    46    10    43    1
    47    10    44    1
    48    11    45    1
    49    11    46    1
    50    12    47    1
    51    12    48    1
    52    18    49    1
    53    19    50    1
    54    20    51    1
    55    21    52    1
    56    22    53    1
    57    23    54    1
    58    24    55    1
    59    25    56    1
    60    27    57    1
    61    28    58    1
    62    29    59    1
    63    30    60    1
    64    31    61    1
    65    31    62    1
    66    31    63    1
    67    32    64    1
    68    32    65    1
    69    32    66    1
    70    33    67    1
    71    34    68    1
@<TRIPOS>MOLECULE
71749831
 41 44 0 0 0
SMALL
GASTEIGER

@<TRIPOS>ATOM
      1 CL        110.1541  152.8530  145.3094 Cl      1  UNL1111    -0.1200
      2 O         118.6697  151.7236  144.2738 O.co2   1  UNL1111    -0.7247
      3 O         116.0494  154.2523  148.2077 O.3     1  UNL1111    -0.3012
      4 O         123.6446  153.0408  149.0299 O.2     1  UNL1111    -0.3758
      5 N         118.6690  152.4297  145.4239 N.3     1  UNL1111     0.4353
      6 N         122.2848  154.8003  148.5282 N.am    1  UNL1111    -0.3337
      7 C         115.8778  153.5752  147.0982 C.3     1  UNL1111     0.1537
      8 C         117.8555  151.7774  146.4633 C.3     1  UNL1111     0.0493
      9 C         117.9276  153.6947  145.2779 C.3     1  UNL1111     0.0493
     10 C         116.6025  152.2689  147.2428 C.3     1  UNL1111     0.1056
     11 C         116.6739  154.2431  146.0170 C.3     1  UNL1111     0.1056
     12 C         120.0235  152.6648  145.8813 C.3     1  UNL1111     0.0418
     13 C         121.4841  152.8883  146.3152 C.3     1  UNL1111     0.0879
     14 C         122.9181  153.0776  146.6821 C.3     1  UNL1111     0.1375
     15 C         114.4272  153.3933  146.6976 C.2     1  UNL1111     0.0240
     16 C         123.6001  154.0458  145.6961 C.2     1  UNL1111     0.0091
     17 C         123.6459  151.7108  146.6041 C.2     1  UNL1111     0.0091
     18 C         122.9715  153.6317  148.1721 C.2     1  UNL1111     0.1716
     19 C         113.3771  154.1166  147.2836 C.2     1  UNL1111     0.0103
     20 C         114.1043  152.5085  145.6540 C.2     1  UNL1111     0.0103
     21 C         123.2914  154.0079  144.3287 C.2     1  UNL1111    -0.0020
     22 C         122.9475  150.5141  146.3942 C.2     1  UNL1111    -0.0020
     23 C         124.6164  154.9125  146.1203 C.2     1  UNL1111    -0.0020
     24 C         125.0386  151.6352  146.7571 C.2     1  UNL1111    -0.0020
     25 C         112.0585  153.9500  146.8645 C.2     1  UNL1111     0.0243
     26 C         112.7913  152.3355  145.2245 C.2     1  UNL1111     0.0243
     27 C         111.7765  153.0591  145.8364 C.2     1  UNL1111     0.0562
     28 C         123.9477  154.8361  143.4212 C.2     1  UNL1111    -0.0014
     29 C         123.6111  149.2911  146.3224 C.2     1  UNL1111    -0.0014
     30 C         125.2763  155.7415  145.2160 C.2     1  UNL1111    -0.0014
     31 C         125.7082  150.4150  146.6921 C.2     1  UNL1111    -0.0014
     32 C         122.3070  155.2229  149.9222 C.3     1  UNL1111    -0.0122
     33 C         121.4790  155.6480  147.6553 C.3     1  UNL1111    -0.0122
     34 C         124.9394  155.7040  143.8667 C.2     1  UNL1111    -0.0005
     35 C         124.9930  149.2429  146.4711 C.2     1  UNL1111    -0.0005
     36 H         122.8518  154.5324  150.5699 H       1  UNL1111     0.0648
     37 H         121.2772  155.2994  150.2845 H       1  UNL1111     0.0648
     38 H         122.7851  156.2057  149.9801 H       1  UNL1111     0.0648
     39 H         121.5800  155.4128  146.5995 H       1  UNL1111     0.0648
     40 H         121.7898  156.6883  147.7969 H       1  UNL1111     0.0648
     41 H         120.4289  155.5451  147.9441 H       1  UNL1111     0.0648
@<TRIPOS>UNITY_ATOM_ATTR
2 1
charge -1
5 1
charge 1
@<TRIPOS>BOND
     1     1    27    1
     2     2     5    1
     3     3     7    1
     4     4    18    2
     5     5     8    1
     6     5     9    1
     7     5    12    1
     8     6    18   am
     9     6    32    1
    10     6    33    1
    11     7    10    1
    12     7    11    1
    13     7    15    1
    14     8    10    1
    15     9    11    1
    16    12    13    1
    17    13    14    1
    18    14    16    1
    19    14    17    1
    20    14    18    1
    21    15    19    2
    22    15    20    1
    23    16    21    2
    24    16    23    1
    25    17    22    2
    26    17    24    1
    27    19    25    1
    28    20    26    2
    29    21    28    1
    30    22    29    1
    31    23    30    2
    32    24    31    2
    33    25    27    2
    34    26    27    1
    35    28    34    2
    36    29    35    2
    37    30    34    1
    38    31    35    1
    39    32    36    1
    40    32    37    1
    41    32    38    1
    42    33    39    1
    43    33    40    1
    44    33    41    1
@<TRIPOS>MOLECULE
46781171
 37 40 0 0 0
SMALL
GASTEIGER

@<TRIPOS>ATOM
      1 CL        129.2691  151.6414  147.6592 Cl      1  UNL111     -0.1200
      2 O         124.1181  155.3441  145.5610 O.3     1  UNL111     -0.3012
      3 O         115.8915  153.3657  143.7209 O.2     1  UNL111     -0.3667
      4 N         121.0697  152.3890  146.2429 N.4     1  UNL111      0.4566
      5 N         116.9273  151.3736  144.2454 N.am    1  UNL111     -0.2562
      6 C         124.0391  154.0987  145.9443 C.3     1  UNL111      0.1541
      7 C         123.1156  153.9995  147.1113 C.3     1  UNL111      0.1093
      8 C         123.2729  153.3404  144.9101 C.3     1  UNL111      0.1093
      9 C         121.7987  153.2224  147.2149 C.3     1  UNL111      0.0727
     10 C         121.9080  152.6346  145.0517 C.3     1  UNL111      0.0727
     11 C         119.6773  152.7307  146.1444 C.3     1  UNL111      0.0654
     12 C         118.1768  152.9480  146.1661 C.3     1  UNL111      0.0929
     13 C         116.6902  153.0025  146.0326 C.3     1  UNL111      0.1439
     14 C         125.3950  153.5280  146.2967 C.2     1  UNL111      0.0240
     15 C         116.0245  152.0095  147.0079 C.2     1  UNL111      0.0102
     16 C         116.1936  154.4235  146.3628 C.2     1  UNL111      0.0102
     17 C         116.4295  152.5992  144.5185 C.2     1  UNL111      0.1978
     18 C         125.9185  152.4066  145.6400 C.2     1  UNL111      0.0103
     19 C         126.1291  154.0641  147.3710 C.2     1  UNL111      0.0103
     20 C         114.7664  151.4634  146.7150 C.2     1  UNL111     -0.0019
     21 C         114.8629  154.7906  146.1233 C.2     1  UNL111     -0.0019
     22 C         116.6130  151.6893  148.2380 C.2     1  UNL111     -0.0019
     23 C         117.0230  155.3553  147.0038 C.2     1  UNL111     -0.0019
     24 C         127.1213  151.8320  146.0471 C.2     1  UNL111      0.0243
     25 C         127.3313  153.4989  147.7840 C.2     1  UNL111      0.0243
     26 C         127.8146  152.3791  147.1213 C.2     1  UNL111      0.0562
     27 C         114.1350  150.5943  147.6018 C.2     1  UNL111     -0.0014
     28 C         114.3861  156.0489  146.4875 C.2     1  UNL111     -0.0014
     29 C         115.9857  150.8192  149.1277 C.2     1  UNL111     -0.0014
     30 C         116.5537  156.6146  147.3699 C.2     1  UNL111     -0.0014
     31 C         114.7483  150.2692  148.8071 C.2     1  UNL111     -0.0005
     32 C         115.2324  156.9604  147.1110 C.2     1  UNL111     -0.0005
     33 C         116.9710  151.0582  142.8259 C.3     1  UNL111      0.0146
     34 H         121.1609  151.4028  146.4944 H       1  UNL111      0.1720
     35 H         117.3655  150.0474  142.6693 H       1  UNL111      0.0757
     36 H         117.6291  151.7346  142.2674 H       1  UNL111      0.0757
     37 H         115.9841  151.0807  142.3492 H       1  UNL111      0.0757
@<TRIPOS>UNITY_ATOM_ATTR
4 1
charge 1
@<TRIPOS>BOND
     1     1    26    1
     2     2     6    1
     3     3    17    2
     4     4     9    1
     5     4    10    1
     6     4    11    1
     7     5    17    1
     8     5    33    1
     9     6     7    1
    10     6     8    1
    11     6    14    1
    12     7     9    1
    13     8    10    1
    14    11    12    1
    15    12    13    1
    16    13    15    1
    17    13    16    1
    18    13    17    1
    19    14    18    2
    20    14    19    1
    21    15    20    2
    22    15    22    1
    23    16    21    2
    24    16    23    1
    25    18    24    1
    26    19    25    2
    27    20    27    1
    28    21    28    1
    29    22    29    2
    30    23    30    2
    31    24    26    2
    32    25    26    1
    33    27    31    2
    34    28    32    2
    35    29    31    1
    36    30    32    1
    37     4    34    1
    38    33    35    1
    39    33    36    1
    40    33    37    1
@<TRIPOS>MOLECULE
45039664
 41 44 0 0 0
SMALL
GASTEIGER

@<TRIPOS>ATOM
      1 CL        129.8724  153.4345  146.9320 Cl      1  UNL111     -0.1200
      2 O         123.6972  151.1066  146.5616 O.3     1  UNL111     -0.3012
      3 O         116.0223  151.9770  144.1014 O.2     1  UNL111     -0.3758
      4 N         121.1880  154.4376  146.3009 N.4     1  UNL111      0.4566
      5 N         116.6848  154.1147  143.6713 N.am    1  UNL111     -0.3337
      6 C         123.9490  152.3879  146.5472 C.3     1  UNL111      0.1541
      7 C         123.1378  153.0190  147.6282 C.3     1  UNL111      0.1093
      8 C         123.3003  152.9626  145.3331 C.3     1  UNL111      0.1093
      9 C         121.8901  153.9004  147.4878 C.3     1  UNL111      0.0727
     10 C         122.0489  153.8464  145.2531 C.3     1  UNL111      0.0727
     11 C         119.8130  154.0067  146.2148 C.3     1  UNL111      0.0652
     12 C         118.3477  153.5768  146.1330 C.3     1  UNL111      0.0916
     13 C         116.9213  153.1312  146.0686 C.3     1  UNL111      0.1378
     14 C         125.4278  152.6671  146.6431 C.2     1  UNL111      0.0240
     15 C         116.0248  154.1275  146.8261 C.2     1  UNL111      0.0091
     16 C         116.8281  151.7287  146.7132 C.2     1  UNL111      0.0091
     17 C         116.5072  153.0287  144.5398 C.2     1  UNL111      0.1716
     18 C         126.0558  152.8239  147.8887 C.2     1  UNL111      0.0103
     19 C         126.2288  152.7257  145.4916 C.2     1  UNL111      0.0103
     20 C         114.7135  154.3835  146.4022 C.2     1  UNL111     -0.0020
     21 C         115.6615  151.3009  147.3618 C.2     1  UNL111     -0.0020
     22 C         116.4647  154.7305  148.0135 C.2     1  UNL111     -0.0020
     23 C         117.8705  150.8012  146.5664 C.2     1  UNL111     -0.0020
     24 C         127.4259  153.0552  147.9833 C.2     1  UNL111      0.0243
     25 C         127.5997  152.9564  145.5755 C.2     1  UNL111      0.0243
     26 C         128.1881  153.1202  146.8234 C.2     1  UNL111      0.0562
     27 C         113.8832  155.2446  147.1161 C.2     1  UNL111     -0.0014
     28 C         115.5542  150.0134  147.8837 C.2     1  UNL111     -0.0014
     29 C         115.6376  155.5918  148.7308 C.2     1  UNL111     -0.0014
     30 C         117.7699  149.5119  147.0852 C.2     1  UNL111     -0.0014
     31 C         117.0462  155.4802  144.0251 C.3     1  UNL111     -0.0122
     32 C         116.3610  153.9205  142.2615 C.3     1  UNL111     -0.0122
     33 C         114.3475  155.8505  148.2792 C.2     1  UNL111     -0.0005
     34 C         116.6110  149.1198  147.7467 C.2     1  UNL111     -0.0005
     35 H         121.2866  155.4543  146.2861 H       1  UNL111      0.1720
     36 H         117.2266  155.6274  145.0861 H       1  UNL111      0.0648
     37 H         116.2313  156.1453  143.7226 H       1  UNL111      0.0648
     38 H         117.9532  155.7524  143.4767 H       1  UNL111      0.0648
     39 H         116.2358  152.8677  141.9974 H       1  UNL111      0.0648
     40 H         117.1697  154.3346  141.6514 H       1  UNL111      0.0648
     41 H         115.4307  154.4533  142.0426 H       1  UNL111      0.0648
@<TRIPOS>UNITY_ATOM_ATTR
4 1
charge 1
@<TRIPOS>BOND
     1     1    26    1
     2     2     6    1
     3     3    17    2
     4     4     9    1
     5     4    10    1
     6     4    11    1
     7     5    17   am
     8     5    31    1
     9     5    32    1
    10     6     7    1
    11     6     8    1
    12     6    14    1
    13     7     9    1
    14     8    10    1
    15    11    12    1
    16    12    13    1
    17    13    15    1
    18    13    16    1
    19    13    17    1
    20    14    18    2
    21    14    19    1
    22    15    20    2
    23    15    22    1
    24    16    21    2
    25    16    23    1
    26    18    24    1
    27    19    25    2
    28    20    27    1
    29    21    28    1
    30    22    29    2
    31    23    30    2
    32    24    26    2
    33    25    26    1
    34    27    33    2
    35    28    34    2
    36    29    33    1
    37    30    34    1
    38     4    35    1
    39    31    36    1
    40    31    37    1
    41    31    38    1
    42    32    39    1
    43    32    40    1
    44    32    41    1
@<TRIPOS>MOLECULE
25129795
 62 65 0 0 0
SMALL
GASTEIGER

@<TRIPOS>ATOM
      1 CL        129.3772  152.1852  145.8540 Cl      1  UNL111     -0.1313
      2 O         123.4531  155.1970  146.0765 O.3     1  UNL111     -0.4383
      3 O         117.2908  153.2350  149.3769 O.2     1  UNL111     -0.3789
      4 N         120.7163  153.2938  147.0396 N.4     1  UNL111      0.4276
      5 N         115.3708  152.1599  149.0513 N.am    1  UNL111     -0.3206
      6 C         123.5433  153.7944  146.3574 C.3     1  UNL111      0.0418
      7 C         122.5613  153.1014  145.3964 C.3     1  UNL111     -0.0202
      8 C         123.0633  153.5780  147.8035 C.3     1  UNL111     -0.0202
      9 C         121.1286  153.5666  145.6123 C.3     1  UNL111     -0.0330
     10 C         121.6237  154.0285  148.0034 C.3     1  UNL111     -0.0330
     11 C         119.2486  153.6533  147.2933 C.3     1  UNL111     -0.0336
     12 C         118.3486  152.4757  146.8712 C.3     1  UNL111     -0.0129
     13 C         116.7933  152.7127  147.0259 C.3     1  UNL111      0.0974
     14 C         125.0038  153.3622  146.2043 C.3     1  UNL111     -0.0401
     15 C         116.4906  154.0774  146.3478 C.3     1  UNL111     -0.0363
     16 C         115.9749  151.5713  146.3471 C.3     1  UNL111     -0.0363
     17 C         116.5164  152.7145  148.5704 C.2     1  UNL111      0.1614
     18 C         125.4130  152.3322  145.3401 C.3     1  UNL111     -0.0635
     19 C         126.0035  154.0230  146.9499 C.3     1  UNL111     -0.0635
     20 C         116.0198  155.1922  147.0611 C.3     1  UNL111     -0.0735
     21 C         114.6444  151.8050  145.9296 C.3     1  UNL111     -0.0735
     22 C         116.7035  154.2265  144.9577 C.3     1  UNL111     -0.0735
     23 C         116.4834  150.2703  146.1843 C.3     1  UNL111     -0.0735
     24 C         126.7618  151.9708  145.2338 C.3     1  UNL111     -0.0488
     25 C         127.3501  153.6617  146.8447 C.3     1  UNL111     -0.0488
     26 C         127.7241  152.6344  145.9872 C.3     1  UNL111      0.0164
     27 C         115.7819  156.4075  146.4116 C.3     1  UNL111     -0.0847
     28 C         113.8714  150.7935  145.3569 C.3     1  UNL111     -0.0847
     29 C         116.4640  155.4410  144.3141 C.3     1  UNL111     -0.0847
     30 C         115.7083  149.2607  145.6037 C.3     1  UNL111     -0.0847
     31 C         116.0057  156.5325  145.0428 C.3     1  UNL111     -0.0866
     32 C         114.4058  149.5221  145.1900 C.3     1  UNL111     -0.0866
     33 H         124.2510  155.4680  145.5807 H       1  UNL111      0.2420
     34 H         120.8201  152.2906  147.2381 H       1  UNL111      0.1324
     35 H         115.2070  152.1828  150.0506 H       1  UNL111      0.1791
     36 H         114.6952  151.6627  148.4836 H       1  UNL111      0.1791
     37 H         122.5989  152.0118  145.5229 H       1  UNL111      0.0619
     38 H         122.8309  153.3224  144.3556 H       1  UNL111      0.0619
     39 H         123.6795  154.1474  148.5100 H       1  UNL111      0.0619
     40 H         123.1614  152.5194  148.0787 H       1  UNL111      0.0619
     41 H         121.0027  154.6383  145.4222 H       1  UNL111      0.0751
     42 H         120.4523  153.0086  144.9584 H       1  UNL111      0.0751
     43 H         121.2942  153.7759  149.0171 H       1  UNL111      0.0751
     44 H         121.4902  155.1033  147.8382 H       1  UNL111      0.0751
     45 H         119.0554  154.5798  146.7460 H       1  UNL111      0.0744
     46 H         119.1751  153.8588  148.3607 H       1  UNL111      0.0744
     47 H         118.6438  151.6058  147.4744 H       1  UNL111      0.0590
     48 H         118.5726  152.2123  145.8299 H       1  UNL111      0.0590
     49 H         124.7076  151.7821  144.7228 H       1  UNL111      0.0932
     50 H         125.7457  154.8393  147.6242 H       1  UNL111      0.0932
     51 H         115.8205  155.1483  148.1303 H       1  UNL111      0.0907
     52 H         114.1819  152.7846  146.0521 H       1  UNL111      0.0907
     53 H         117.0320  153.3830  144.3516 H       1  UNL111      0.0907
     54 H         117.4828  149.9980  146.5094 H       1  UNL111      0.0907
     55 H         127.0552  151.1702  144.5581 H       1  UNL111      0.0992
     56 H         128.1001  154.1867  147.4321 H       1  UNL111      0.0992
     57 H         115.4085  157.2602  146.9756 H       1  UNL111      0.0877
     58 H         112.8504  151.0001  145.0430 H       1  UNL111      0.0877
     59 H         116.6159  155.5312  143.2407 H       1  UNL111      0.0877
     60 H         116.1191  148.2608  145.4797 H       1  UNL111      0.0877
     61 H         115.8059  157.4773  144.5421 H       1  UNL111      0.0874
     62 H         113.8048  148.7333  144.7433 H       1  UNL111      0.0874
@<TRIPOS>UNITY_ATOM_ATTR
4 1
charge 1
@<TRIPOS>BOND
     1     1    26    1
     2     2     6    1
     3     3    17    2
     4     4     9    1
     5     4    10    1
     6     4    11    1
     7     5    17   am
     8     6     7    1
     9     6     8    1
    10     6    14    1
    11     7     9    1
    12     8    10    1
    13    11    12    1
    14    12    13    1
    15    13    15    1
    16    13    16    1
    17    13    17    1
    18    14    18   ar
    19    14    19   ar
    20    15    20   ar
    21    15    22   ar
    22    16    21   ar
    23    16    23   ar
    24    18    24   ar
    25    19    25   ar
    26    20    27   ar
    27    21    28   ar
    28    22    29   ar
    29    23    30   ar
    30    24    26   ar
    31    25    26   ar
    32    27    31   ar
    33    28    32   ar
    34    29    31   ar
    35    30    32   ar
    36     2    33    1
    37     4    34    1
    38     5    35    1
    39     5    36    1
    40     7    37    1
    41     7    38    1
    42     8    39    1
    43     8    40    1
    44     9    41    1
    45     9    42    1
    46    10    43    1
    47    10    44    1
    48    11    45    1
    49    11    46    1
    50    12    47    1
    51    12    48    1
    52    18    49    1
    53    19    50    1
    54    20    51    1
    55    21    52    1
    56    22    53    1
    57    23    54    1
    58    24    55    1
    59    25    56    1
    60    27    57    1
    61    28    58    1
    62    29    59    1
    63    30    60    1
    64    31    61    1
    65    32    62    1
@<TRIPOS>MOLECULE
38282
 29 30 0 0 0
SMALL
GASTEIGER

@<TRIPOS>ATOM
      1 CL        124.7881  153.0366  146.2404 Cl      1  UNL111     -0.1313
      2 O         118.3961  153.7467  147.9302 O.3     1  UNL111     -0.4383
      3 N         116.0107  152.8919  145.6449 N.4     1  UNL111      0.4324
      4 C         118.7333  153.1774  146.6583 C.3     1  UNL111      0.0417
      5 C         118.0083  151.8184  146.5995 C.3     1  UNL111     -0.0202
      6 C         118.1550  154.1039  145.5700 C.3     1  UNL111     -0.0202
      7 C         116.5000  151.9792  146.7189 C.3     1  UNL111     -0.0294
      8 C         116.6454  154.2411  145.6866 C.3     1  UNL111     -0.0294
      9 C         120.2566  153.1030  146.5458 C.ar    1  UNL111     -0.0402
     10 C         120.9478  151.9156  146.2508 C.ar    1  UNL111     -0.0635
     11 C         121.0232  154.2705  146.7498 C.ar    1  UNL111     -0.0635
     12 C         122.3451  151.8976  146.1568 C.ar    1  UNL111     -0.0488
     13 C         122.4180  154.2527  146.6558 C.ar    1  UNL111     -0.0488
     14 C         123.0742  153.0648  146.3580 C.ar    1  UNL111      0.0164
     15 H         119.1670  153.6560  148.5258 H       1  UNL111      0.2420
     16 H         114.9925  153.0059  145.7490 H       1  UNL111      0.1348
     17 H         116.1471  152.4628  144.7191 H       1  UNL111      0.1348
     18 H         118.3446  151.1719  147.4201 H       1  UNL111      0.0618
     19 H         118.2336  151.3010  145.6581 H       1  UNL111      0.0618
     20 H         118.4177  153.7238  144.5738 H       1  UNL111      0.0618
     21 H         118.5792  155.1124  145.6474 H       1  UNL111      0.0618
     22 H         115.9881  151.0226  146.5762 H       1  UNL111      0.0748
     23 H         116.1913  152.4042  147.6795 H       1  UNL111      0.0748
     24 H         116.3361  154.7209  146.6211 H       1  UNL111      0.0748
     25 H         116.2336  154.8088  144.8466 H       1  UNL111      0.0748
     26 H         120.4329  150.9724  146.0882 H       1  UNL111      0.0932
     27 H         120.5408  155.2170  146.9927 H       1  UNL111      0.0932
     28 H         122.8597  150.9667  145.9278 H       1  UNL111      0.0992
     29 H         122.9847  155.1669  146.8179 H       1  UNL111      0.0992
@<TRIPOS>UNITY_ATOM_ATTR
3 1
charge 1
@<TRIPOS>BOND
     1     1    14    1
     2     2     4    1
     3     3     7    1
     4     3     8    1
     5     4     5    1
     6     4     6    1
     7     4     9    1
     8     5     7    1
     9     6     8    1
    10     9    10   ar
    11     9    11   ar
    12    10    12   ar
    13    11    13   ar
    14    12    14   ar
    15    13    14   ar
    16     2    15    1
    17     3    16    1
    18     3    17    1
    19     5    18    1
    20     5    19    1
    21     6    20    1
    22     6    21    1
    23     7    22    1
    24     7    23    1
    25     8    24    1
    26     8    25    1
    27    10    26    1
    28    11    27    1
    29    12    28    1
    30    13    29    1
@<TRIPOS>MOLECULE
3705191
 68 71 0 0 0
SMALL
GASTEIGER

@<TRIPOS>ATOM
      1 O         124.0777  151.1112  146.4898 O.3     1  UNL111     -0.4383
      2 O         117.5213  152.1643  143.8657 O.2     1  UNL111     -0.3768
      3 N         121.3178  153.1125  145.8281 N.4     1  UNL111      0.4276
      4 N         116.7355  154.2736  143.7066 N.am    1  UNL111     -0.3344
      5 C         124.1407  152.5435  146.4869 C.3     1  UNL111      0.0416
      6 C         123.6937  153.0273  145.0967 C.3     1  UNL111     -0.0202
      7 C         123.1165  153.0156  147.5328 C.3     1  UNL111     -0.0202
      8 C         122.2726  152.5955  144.7701 C.3     1  UNL111     -0.0330
      9 C         121.7040  152.5658  147.1861 C.3     1  UNL111     -0.0330
     10 C         119.8770  152.7676  145.4552 C.3     1  UNL111     -0.0336
     11 C         118.8952  153.7366  146.1434 C.3     1  UNL111     -0.0126
     12 C         117.3905  153.2760  146.0318 C.3     1  UNL111      0.0988
     13 C         125.5836  152.9675  146.7603 C.3     1  UNL111     -0.0426
     14 C         117.2678  151.8925  146.7680 C.3     1  UNL111     -0.0360
     15 C         116.3695  154.2091  146.7292 C.3     1  UNL111     -0.0360
     16 C         117.1615  153.1899  144.4652 C.2     1  UNL111      0.1641
     17 C         126.6192  152.4566  145.9501 C.3     1  UNL111     -0.0718
     18 C         125.9433  153.8489  147.7930 C.3     1  UNL111     -0.0718
     19 C         116.6277  150.7777  146.1978 C.3     1  UNL111     -0.0735
     20 C         116.7461  155.2606  147.5854 C.3     1  UNL111     -0.0735
     21 C         117.7340  151.7539  148.0956 C.3     1  UNL111     -0.0735
     22 C         114.9894  153.9726  146.5521 C.3     1  UNL111     -0.0735
     23 C         127.9521  152.8165  146.1595 C.3     1  UNL111     -0.0839
     24 C         127.2790  154.2088  148.0013 C.3     1  UNL111     -0.0839
     25 C         128.2814  153.6945  147.1852 C.3     1  UNL111     -0.0864
     26 C         116.5262  149.5653  146.8877 C.3     1  UNL111     -0.0847
     27 C         115.7831  156.0594  148.2097 C.3     1  UNL111     -0.0847
     28 C         117.6280  150.5432  148.7855 C.3     1  UNL111     -0.0847
     29 C         114.0310  154.7715  147.1781 C.3     1  UNL111     -0.0847
     30 C         116.3341  154.0308  142.3244 C.3     1  UNL111     -0.0122
     31 C         116.6415  155.6664  144.1248 C.3     1  UNL111     -0.0122
     32 C         117.0341  149.4450  148.1761 C.3     1  UNL111     -0.0866
     33 C         114.4284  155.8171  148.0038 C.3     1  UNL111     -0.0866
     34 H         124.8676  150.7691  146.9542 H       1  UNL111      0.2420
     35 H         121.3980  154.1370  145.8396 H       1  UNL111      0.1324
     36 H         124.3431  152.6179  144.3132 H       1  UNL111      0.0619
     37 H         123.7717  154.1209  145.0344 H       1  UNL111      0.0619
     38 H         123.1246  154.1097  147.6188 H       1  UNL111      0.0619
     39 H         123.3669  152.6056  148.5197 H       1  UNL111      0.0619
     40 H         121.9637  153.0308  143.8136 H       1  UNL111      0.0751
     41 H         122.1628  151.5063  144.7215 H       1  UNL111      0.0751
     42 H         121.6036  151.4753  147.1544 H       1  UNL111      0.0751
     43 H         120.9994  152.9650  147.9205 H       1  UNL111      0.0751
     44 H         119.7256  151.7158  145.7135 H       1  UNL111      0.0744
     45 H         119.8141  152.8864  144.3696 H       1  UNL111      0.0744
     46 H         119.0243  154.7242  145.6828 H       1  UNL111      0.0590
     47 H         119.1823  153.8708  147.1901 H       1  UNL111      0.0590
     48 H         126.3995  151.7601  145.1418 H       1  UNL111      0.0916
     49 H         125.2078  154.2792  148.4667 H       1  UNL111      0.0916
     50 H         116.1775  150.8180  145.2081 H       1  UNL111      0.0907
     51 H         117.7866  155.4900  147.7907 H       1  UNL111      0.0907
     52 H         118.1488  152.6006  148.6370 H       1  UNL111      0.0907
     53 H         114.6418  153.1540  145.9230 H       1  UNL111      0.0907
     54 H         128.7346  152.4091  145.5229 H       1  UNL111      0.0878
     55 H         127.5399  154.8923  148.8068 H       1  UNL111      0.0878
     56 H         129.3189  153.9753  147.3514 H       1  UNL111      0.0874
     57 H         116.0312  148.7169  146.4192 H       1  UNL111      0.0877
     58 H         116.0887  156.8705  148.8671 H       1  UNL111      0.0877
     59 H         117.9825  150.4639  149.8107 H       1  UNL111      0.0877
     60 H         112.9728  154.5704  147.0272 H       1  UNL111      0.0877
     61 H         116.2387  152.9655  142.0987 H       1  UNL111      0.0648
     62 H         117.0848  154.4710  141.6613 H       1  UNL111      0.0648
     63 H         115.3652  154.5082  142.1481 H       1  UNL111      0.0648
     64 H         117.2899  155.8840  144.9700 H       1  UNL111      0.0648
     65 H         115.6007  155.8965  144.3664 H       1  UNL111      0.0648
     66 H         116.9618  156.3088  143.2978 H       1  UNL111      0.0648
     67 H         116.9373  148.5048  148.7137 H       1  UNL111      0.0874
     68 H         113.6813  156.4357  148.4957 H       1  UNL111      0.0874
@<TRIPOS>UNITY_ATOM_ATTR
3 1
charge 1
@<TRIPOS>BOND
     1     1     5    1
     2     2    16    2
     3     3     8    1
     4     3     9    1
     5     3    10    1
     6     4    16   am
     7     4    30    1
     8     4    31    1
     9     5     6    1
    10     5     7    1
    11     5    13    1
    12     6     8    1
    13     7     9    1
    14    10    11    1
    15    11    12    1
    16    12    14    1
    17    12    15    1
    18    12    16    1
    19    13    17   ar
    20    13    18   ar
    21    14    19   ar
    22    14    21   ar
    23    15    20   ar
    24    15    22   ar
    25    17    23   ar
    26    18    24   ar
    27    19    26   ar
    28    20    27   ar
    29    21    28   ar
    30    22    29   ar
    31    23    25   ar
    32    24    25   ar
    33    26    32   ar
    34    27    33   ar
    35    28    32   ar
    36    29    33   ar
    37     1    34    1
    38     3    35    1
    39     6    36    1
    40     6    37    1
    41     7    38    1
    42     7    39    1
    43     8    40    1
    44     8    41    1
    45     9    42    1
    46     9    43    1
    47    10    44    1
    48    10    45    1
    49    11    46    1
    50    11    47    1
    51    17    48    1
    52    18    49    1
    53    19    50    1
    54    20    51    1
    55    21    52    1
    56    22    53    1
    57    23    54    1
    58    24    55    1
    59    25    56    1
    60    26    57    1
    61    27    58    1
    62    28    59    1
    63    29    60    1
    64    30    61    1
    65    30    62    1
    66    30    63    1
    67    31    64    1
    68    31    65    1
    69    31    66    1
    70    32    67    1
    71    33    68    1
@<TRIPOS>MOLECULE
25130137
 65 68 0 0 0
SMALL
GASTEIGER

@<TRIPOS>ATOM
      1 CL        129.4880  152.7370  147.7409 Cl      1  UNL111     -0.1313
      2 O         123.6139  155.2492  145.9075 O.3     1  UNL111     -0.4383
      3 O         117.3380  152.4587  143.6303 O.2     1  UNL111     -0.3779
      4 N         120.9136  153.0876  145.7275 N.4     1  UNL111      0.4276
      5 N         115.7175  151.0948  144.4320 N.am    1  UNL111     -0.3274
      6 C         123.7373  153.8398  146.1383 C.3     1  UNL111      0.0418
      7 C         123.2383  153.1524  144.8568 C.3     1  UNL111     -0.0202
      8 C         122.7974  153.4731  147.2998 C.3     1  UNL111     -0.0202
      9 C         121.7861  153.4970  144.5574 C.3     1  UNL111     -0.0330
     10 C         121.3460  153.8036  146.9859 C.3     1  UNL111     -0.0330
     11 C         119.4366  153.3301  145.4001 C.3     1  UNL111     -0.0336
     12 C         118.5491  152.3930  146.2416 C.3     1  UNL111     -0.0128
     13 C         116.9903  152.5821  146.0519 C.3     1  UNL111      0.0981
     14 C         125.1896  153.5358  146.5108 C.3     1  UNL111     -0.0401
     15 C         116.7037  154.1017  146.2228 C.3     1  UNL111     -0.0362
     16 C         116.1834  151.7699  147.1109 C.3     1  UNL111     -0.0362
     17 C         116.6928  152.0495  144.5993 C.2     1  UNL111      0.1628
     18 C         125.9646  152.5649  145.8541 C.3     1  UNL111     -0.0635
     19 C         125.7981  154.2561  147.5611 C.3     1  UNL111     -0.0635
     20 C         116.1706  154.8966  145.1944 C.3     1  UNL111     -0.0735
     21 C         114.8439  152.1218  147.3944 C.3     1  UNL111     -0.0735
     22 C         116.9793  154.7272  147.4606 C.3     1  UNL111     -0.0735
     23 C         116.7072  150.6393  147.7633 C.3     1  UNL111     -0.0735
     24 C         127.2897  152.3202  146.2353 C.3     1  UNL111     -0.0488
     25 C         127.1210  154.0123  147.9413 C.3     1  UNL111     -0.0488
     26 C         127.8621  153.0428  147.2769 C.3     1  UNL111      0.0164
     27 C         115.9444  156.2628  145.3890 C.3     1  UNL111     -0.0847
     28 C         114.0765  151.3924  148.3042 C.3     1  UNL111     -0.0847
     29 C         116.7502  156.0907  147.6510 C.3     1  UNL111     -0.0847
     30 C         115.9361  149.9129  148.6768 C.3     1  UNL111     -0.0847
     31 C         116.2369  156.8591  146.6124 C.3     1  UNL111     -0.0866
     32 C         114.6245  150.2897  148.9480 C.3     1  UNL111     -0.0866
     33 C         115.3980  150.5519  143.1333 C.3     1  UNL111     -0.0132
     34 H         124.4975  155.6058  145.6877 H       1  UNL111      0.2420
     35 H         121.0327  152.0750  145.8575 H       1  UNL111      0.1324
     36 H         115.1630  150.7729  145.2171 H       1  UNL111      0.1835
     37 H         123.3284  152.0618  144.9409 H       1  UNL111      0.0619
     38 H         123.8435  153.4673  143.9970 H       1  UNL111      0.0619
     39 H         123.0657  154.0271  148.2078 H       1  UNL111      0.0619
     40 H         122.8908  152.4056  147.5397 H       1  UNL111      0.0619
     41 H         121.6297  154.5664  144.3780 H       1  UNL111      0.0751
     42 H         121.4449  152.9314  143.6836 H       1  UNL111      0.0751
     43 H         120.7033  153.4618  147.8018 H       1  UNL111      0.0751
     44 H         121.1873  154.8772  146.8345 H       1  UNL111      0.0751
     45 H         119.3408  153.1202  144.3355 H       1  UNL111      0.0744
     46 H         119.2500  154.3938  145.5697 H       1  UNL111      0.0744
     47 H         118.8018  152.5170  147.3015 H       1  UNL111      0.0590
     48 H         118.8230  151.3608  145.9822 H       1  UNL111      0.0590
     49 H         125.5726  151.9731  145.0311 H       1  UNL111      0.0932
     50 H         125.2458  155.0275  148.0973 H       1  UNL111      0.0932
     51 H         115.9114  154.4818  144.2220 H       1  UNL111      0.0907
     52 H         114.3717  152.9726  146.9029 H       1  UNL111      0.0907
     53 H         117.3484  154.1491  148.3067 H       1  UNL111      0.0907
     54 H         117.7155  150.2822  147.5777 H       1  UNL111      0.0907
     55 H         127.8716  151.5638  145.7126 H       1  UNL111      0.0992
     56 H         127.5658  154.5826  148.7536 H       1  UNL111      0.0992
     57 H         115.5261  156.8630  144.5833 H       1  UNL111      0.0877
     58 H         113.0491  151.6865  148.5085 H       1  UNL111      0.0877
     59 H         116.9527  156.5505  148.6158 H       1  UNL111      0.0877
     60 H         116.3578  149.0433  149.1769 H       1  UNL111      0.0877
     61 H         116.0459  157.9196  146.7608 H       1  UNL111      0.0874
     62 H         114.0274  149.7213  149.6575 H       1  UNL111      0.0874
     63 H         114.8034  151.2859  142.5838 H       1  UNL111      0.0636
     64 H         114.8221  149.6339  143.2712 H       1  UNL111      0.0636
     65 H         116.3155  150.3349  142.5793 H       1  UNL111      0.0636
@<TRIPOS>UNITY_ATOM_ATTR
4 1
charge 1
@<TRIPOS>BOND
     1     1    26    1
     2     2     6    1
     3     3    17    2
     4     4     9    1
     5     4    10    1
     6     4    11    1
     7     5    17   am
     8     5    33    1
     9     6     7    1
    10     6     8    1
    11     6    14    1
    12     7     9    1
    13     8    10    1
    14    11    12    1
    15    12    13    1
    16    13    15    1
    17    13    16    1
    18    13    17    1
    19    14    18   ar
    20    14    19   ar
    21    15    20   ar
    22    15    22   ar
    23    16    21   ar
    24    16    23   ar
    25    18    24   ar
    26    19    25   ar
    27    20    27   ar
    28    21    28   ar
    29    22    29   ar
    30    23    30   ar
    31    24    26   ar
    32    25    26   ar
    33    27    31   ar
    34    28    32   ar
    35    29    31   ar
    36    30    32   ar
    37     2    34    1
    38     4    35    1
    39     5    36    1
    40     7    37    1
    41     7    38    1
    42     8    39    1
    43     8    40    1
    44     9    41    1
    45     9    42    1
    46    10    43    1
    47    10    44    1
    48    11    45    1
    49    11    46    1
    50    12    47    1
    51    12    48    1
    52    18    49    1
    53    19    50    1
    54    20    51    1
    55    21    52    1
    56    22    53    1
    57    23    54    1
    58    24    55    1
    59    25    56    1
    60    27    57    1
    61    28    58    1
    62    29    59    1
    63    30    60    1
    64    31    61    1
    65    32    62    1
    66    33    63    1
    67    33    64    1
    68    33    65    1
@<TRIPOS>MOLECULE
9912841
 68 71 0 0 0
SMALL
GASTEIGER

@<TRIPOS>ATOM
      1 CL        129.6636  153.7532  147.3987 Cl      1  UNL111     -0.1313
      2 O         123.7142  150.9455  146.4405 O.3     1  UNL111     -0.4383
      3 O         117.1901  152.1164  143.9037 O.2     1  UNL111     -0.3768
      4 N         121.0267  153.0424  145.7835 N.4     1  UNL111      0.4276
      5 N         116.4175  154.2243  143.6794 N.am    1  UNL111     -0.3344
      6 C         123.8288  152.3740  146.4409 C.3     1  UNL111      0.0418
      7 C         123.3987  152.8764  145.0520 C.3     1  UNL111     -0.0202
      8 C         122.8228  152.8820  147.4878 C.3     1  UNL111     -0.0202
      9 C         121.9628  152.4950  144.7245 C.3     1  UNL111     -0.0330
     10 C         121.3945  152.4835  147.1420 C.3     1  UNL111     -0.0330
     11 C         119.5748  152.7411  145.4141 C.3     1  UNL111     -0.0336
     12 C         118.6254  153.7486  146.0928 C.3     1  UNL111     -0.0126
     13 C         117.1113  153.3106  146.0276 C.3     1  UNL111      0.0988
     14 C         125.2882  152.7432  146.7147 C.3     1  UNL111     -0.0401
     15 C         116.9833  151.9590  146.8205 C.3     1  UNL111     -0.0360
     16 C         116.1201  154.2869  146.7082 C.3     1  UNL111     -0.0360
     17 C         116.8501  153.1672  144.4705 C.2     1  UNL111      0.1641
     18 C         126.3042  152.1906  145.9055 C.3     1  UNL111     -0.0635
     19 C         125.6806  153.6129  147.7463 C.3     1  UNL111     -0.0635
     20 C         117.4653  151.8695  148.1467 C.3     1  UNL111     -0.0735
     21 C         114.7332  154.0630  146.5734 C.3     1  UNL111     -0.0735
     22 C         116.3261  150.8283  146.3037 C.3     1  UNL111     -0.0735
     23 C         116.5313  155.3681  147.5097 C.3     1  UNL111     -0.0735
     24 C         127.6515  152.4999  146.1138 C.3     1  UNL111     -0.0488
     25 C         127.0303  153.9230  147.9551 C.3     1  UNL111     -0.0488
     26 C         128.0095  153.3675  147.1384 C.3     1  UNL111      0.0164
     27 C         117.3577  150.6886  148.8863 C.3     1  UNL111     -0.0847
     28 C         113.8009  154.9013  147.1872 C.3     1  UNL111     -0.0847
     29 C         116.2231  149.6455  147.0432 C.3     1  UNL111     -0.0847
     30 C         115.5943  156.2064  148.1218 C.3     1  UNL111     -0.0847
     31 C         115.9806  153.9313  142.3179 C.3     1  UNL111     -0.0122
     32 C         116.3526  155.6340  144.0425 C.3     1  UNL111     -0.0122
     33 C         116.7467  149.5723  148.3289 C.3     1  UNL111     -0.0866
     34 C         114.2320  155.9751  147.9581 C.3     1  UNL111     -0.0866
     35 H         124.4767  150.5709  146.9245 H       1  UNL111      0.2420
     36 H         121.1372  154.0641  145.7945 H       1  UNL111      0.1324
     37 H         124.0335  152.4465  144.2675 H       1  UNL111      0.0619
     38 H         123.5148  153.9667  144.9922 H       1  UNL111      0.0619
     39 H         122.8706  153.9751  147.5744 H       1  UNL111      0.0619
     40 H         123.0592  152.4627  148.4742 H       1  UNL111      0.0619
     41 H         121.6689  152.9427  143.7690 H       1  UNL111      0.0751
     42 H         121.8156  151.4103  144.6738 H       1  UNL111      0.0751
     43 H         121.2557  151.3972  147.1112 H       1  UNL111      0.0751
     44 H         120.7047  152.9082  147.8763 H       1  UNL111      0.0751
     45 H         119.3903  151.6970  145.6821 H       1  UNL111      0.0744
     46 H         119.5129  152.8516  144.3272 H       1  UNL111      0.0744
     47 H         118.7609  154.7182  145.5973 H       1  UNL111      0.0590
     48 H         118.9375  153.9122  147.1283 H       1  UNL111      0.0590
     49 H         126.0575  151.5009  145.0985 H       1  UNL111      0.0932
     50 H         124.9612  154.0726  148.4187 H       1  UNL111      0.0932
     51 H         117.8938  152.7338  148.6482 H       1  UNL111      0.0907
     52 H         114.3597  153.2238  145.9878 H       1  UNL111      0.0907
     53 H         115.8632  150.8328  145.3191 H       1  UNL111      0.0907
     54 H         117.5794  155.5911  147.6803 H       1  UNL111      0.0907
     55 H         128.4142  152.0596  145.4755 H       1  UNL111      0.0992
     56 H         127.3116  154.5988  148.7601 H       1  UNL111      0.0992
     57 H         117.7237  150.6476  149.9096 H       1  UNL111      0.0877
     58 H         112.7367  154.7095  147.0697 H       1  UNL111      0.0877
     59 H         115.7144  148.7837  146.6157 H       1  UNL111      0.0877
     60 H         115.9263  157.0403  148.7364 H       1  UNL111      0.0877
     61 H         115.8645  152.8591  142.1392 H       1  UNL111      0.0648
     62 H         116.7221  154.3319  141.6203 H       1  UNL111      0.0648
     63 H         115.0149  154.4160  142.1438 H       1  UNL111      0.0648
     64 H         117.0263  155.8758  144.8610 H       1  UNL111      0.0648
     65 H         115.3217  155.8886  144.3013 H       1  UNL111      0.0648
     66 H         116.6594  156.2378  143.1820 H       1  UNL111      0.0648
     67 H         116.6481  148.6555  148.9053 H       1  UNL111      0.0874
     68 H         113.5052  156.6246  148.4404 H       1  UNL111      0.0874
@<TRIPOS>UNITY_ATOM_ATTR
4 1
charge 1
@<TRIPOS>BOND
     1     1    26    1
     2     2     6    1
     3     3    17    2
     4     4     9    1
     5     4    10    1
     6     4    11    1
     7     5    17   am
     8     5    31    1
     9     5    32    1
    10     6     7    1
    11     6     8    1
    12     6    14    1
    13     7     9    1
    14     8    10    1
    15    11    12    1
    16    12    13    1
    17    13    15    1
    18    13    16    1
    19    13    17    1
    20    14    18   ar
    21    14    19   ar
    22    15    20   ar
    23    15    22   ar
    24    16    21   ar
    25    16    23   ar
    26    18    24   ar
    27    19    25   ar
    28    20    27   ar
    29    21    28   ar
    30    22    29   ar
    31    23    30   ar
    32    24    26   ar
    33    25    26   ar
    34    27    33   ar
    35    28    34   ar
    36    29    33   ar
    37    30    34   ar
    38     2    35    1
    39     4    36    1
    40     7    37    1
    41     7    38    1
    42     8    39    1
    43     8    40    1
    44     9    41    1
    45     9    42    1
    46    10    43    1
    47    10    44    1
    48    11    45    1
    49    11    46    1
    50    12    47    1
    51    12    48    1
    52    18    49    1
    53    19    50    1
    54    20    51    1
    55    21    52    1
    56    22    53    1
    57    23    54    1
    58    24    55    1
    59    25    56    1
    60    27    57    1
    61    28    58    1
    62    29    59    1
    63    30    60    1
    64    31    61    1
    65    31    62    1
    66    31    63    1
    67    32    64    1
    68    32    65    1
    69    32    66    1
    70    33    67    1
    71    34    68    1
