@<TRIPOS>MOLECULE
5484731
 60 65 0 0 0
SMALL
GASTEIGER

@<TRIPOS>ATOM
      1 O         119.3811  152.2889  148.0875 O.2     1  UNL111     -0.5434
      2 O         120.4288  154.7322  148.6783 O.3     1  UNL111     -0.4348
      3 O         121.1233  150.7370  146.2061 O.2     1  UNL111     -0.5163
      4 O         122.0034  152.9564  146.0576 O.3     1  UNL111     -0.3726
      5 O         123.6714  149.8167  147.0151 O.3     1  UNL111     -0.4215
      6 O         125.8590  151.5461  146.4141 O.3     1  UNL111     -0.4308
      7 O         125.3327  154.3013  146.9839 O.3     1  UNL111     -0.4313
      8 O         121.6927  155.9306  146.6770 O.co2   1  UNL111     -0.5544
      9 O         123.0393  155.5899  144.8580 O.co2   1  UNL111     -0.5544
     10 N         114.5321  153.0882  146.3560 N.4     1  UNL111      0.4275
     11 C         117.2124  153.1873  147.4835 C.3     1  UNL111      0.0533
     12 C         116.5092  154.4623  146.9936 C.3     1  UNL111     -0.0026
     13 C         115.6109  154.0495  145.7913 C.3     1  UNL111     -0.0206
     14 C         118.4134  153.3374  148.4457 C.3     1  UNL111      0.0902
     15 C         116.1653  152.1882  148.0198 C.3     1  UNL111     -0.0259
     16 C         117.9403  152.5573  146.3418 C.3     1  UNL111      0.0238
     17 C         116.3909  153.4235  144.5982 C.3     1  UNL111     -0.0213
     18 C         115.0926  151.8362  146.9925 C.3     1  UNL111     -0.0364
     19 C         117.5433  152.5542  145.0137 C.3     1  UNL111     -0.0425
     20 C         119.0273  154.7696  148.4899 C.3     1  UNL111      0.0605
     21 C         117.4727  155.5715  146.6893 C.2     1  UNL111     -0.0869
     22 C         119.1340  152.0147  146.7690 C.3     1  UNL111      0.1094
     23 C         118.6216  155.6906  147.3703 C.2     1  UNL111     -0.0672
     24 C         118.3338  151.8437  144.1108 C.3     1  UNL111     -0.0567
     25 C         113.4302  152.7773  145.3818 C.3     1  UNL111     -0.0442
     26 C         119.9309  151.3166  145.8846 C.3     1  UNL111      0.1106
     27 C         119.5029  151.1988  144.5550 C.3     1  UNL111     -0.0097
     28 C         122.0932  151.6950  146.7000 C.3     1  UNL111      0.1502
     29 C         123.4734  151.0954  146.3780 C.3     1  UNL111      0.0995
     30 C         124.5747  152.0499  146.8323 C.3     1  UNL111      0.0797
     31 C         124.3737  153.4791  146.3012 C.3     1  UNL111      0.0796
     32 C         122.9430  153.9227  146.5894 C.3     1  UNL111      0.1102
     33 C         122.5545  155.2936  145.9850 C.2     1  UNL111      0.0700
     34 H         120.8619  155.2214  147.9278 H       1  UNL111      0.2424
     35 H         122.8596  149.3092  146.8225 H       1  UNL111      0.2455
     36 H         125.8491  150.6040  146.6733 H       1  UNL111      0.2420
     37 H         126.2001  153.9426  146.7185 H       1  UNL111      0.2419
     38 H         114.0746  153.6128  147.1134 H       1  UNL111      0.1328
     39 H         115.8558  154.8474  147.7905 H       1  UNL111      0.0720
     40 H         115.0462  154.9200  145.4345 H       1  UNL111      0.0854
     41 H         118.1048  153.0968  149.4720 H       1  UNL111      0.1417
     42 H         115.6814  152.6229  148.9047 H       1  UNL111      0.0544
     43 H         116.6394  151.2573  148.3577 H       1  UNL111      0.0544
     44 H         116.8110  154.2500  144.0096 H       1  UNL111      0.0615
     45 H         115.7278  152.8680  143.9293 H       1  UNL111      0.0615
     46 H         115.4678  151.1875  146.1949 H       1  UNL111      0.0738
     47 H         114.2566  151.3249  147.4826 H       1  UNL111      0.0738
     48 H         118.6312  155.2497  149.3949 H       1  UNL111      0.1221
     49 H         117.2417  156.3139  145.9285 H       1  UNL111      0.0812
     50 H         119.2918  156.5212  147.1441 H       1  UNL111      0.0909
     51 H         118.0930  151.8209  143.0505 H       1  UNL111      0.0940
     52 H         113.8061  152.0972  144.6147 H       1  UNL111      0.0667
     53 H         113.0828  153.7168  144.9451 H       1  UNL111      0.0667
     54 H         112.6170  152.3056  145.9403 H       1  UNL111      0.0667
     55 H         120.1323  150.6743  143.8394 H       1  UNL111      0.1146
     56 H         121.9517  151.7849  147.7847 H       1  UNL111      0.1975
     57 H         123.5663  150.9138  145.2997 H       1  UNL111      0.1391
     58 H         124.6197  152.0667  147.9294 H       1  UNL111      0.1254
     59 H         124.6013  153.5153  145.2293 H       1  UNL111      0.1249
     60 H         122.8011  153.9971  147.6759 H       1  UNL111      0.1368
@<TRIPOS>UNITY_ATOM_ATTR
8 1
charge -1
10 1
charge 1
@<TRIPOS>BOND
     1     1    14    1
     2     1    22    1
     3     2    20    1
     4     3    26    1
     5     3    28    1
     6     4    28    1
     7     4    32    1
     8     5    29    1
     9     6    30    1
    10     7    31    1
    11     8    33   ar
    12     9    33   ar
    13    10    13    1
    14    10    18    1
    15    10    25    1
    16    11    12    1
    17    11    14    1
    18    11    15    1
    19    11    16    1
    20    12    13    1
    21    12    21    1
    22    13    17    1
    23    14    20    1
    24    15    18    1
    25    16    19   ar
    26    16    22   ar
    27    17    19    1
    28    19    24   ar
    29    20    23    1
    30    21    23    2
    31    22    26   ar
    32    24    27   ar
    33    26    27   ar
    34    28    29    1
    35    29    30    1
    36    30    31    1
    37    31    32    1
    38    32    33    1
    39     2    34    1
    40     5    35    1
    41     6    36    1
    42     7    37    1
    43    10    38    1
    44    12    39    1
    45    13    40    1
    46    14    41    1
    47    15    42    1
    48    15    43    1
    49    17    44    1
    50    17    45    1
    51    18    46    1
    52    18    47    1
    53    20    48    1
    54    21    49    1
    55    23    50    1
    56    24    51    1
    57    25    52    1
    58    25    53    1
    59    25    54    1
    60    27    55    1
    61    28    56    1
    62    29    57    1
    63    30    58    1
    64    31    59    1
    65    32    60    1
@<TRIPOS>MOLECULE
117065139
 37 42 0 0 0
SMALL
GASTEIGER

@<TRIPOS>ATOM
      1 O         121.0015  150.4876  147.3711 O.2     1  UNL111     -0.5136
      2 O         123.8654  149.6746  148.6409 O.3     1  UNL111     -0.2743
      3 O         118.1426  150.8410  146.1505 O.2     1  UNL111     -0.4732
      4 O         118.0901  153.1260  147.0129 O.3     1  UNL111     -0.3115
      5 O         115.5498  151.2042  145.2966 O.3     1  UNL111     -0.2487
      6 O         114.2491  153.7529  146.0813 O.3     1  UNL111     -0.2622
      7 O         116.2846  155.8704  145.5919 O.3     1  UNL111     -0.2673
      8 O         119.6863  155.7999  146.1743 O.co2   1  UNL111     -0.5491
      9 O         119.0190  155.7918  148.3107 O.co2   1  UNL111     -0.5491
     10 N         122.9275  155.5327  146.6185 N.4     1  UNL111      0.4425
     11 C         122.2419  152.5266  147.1813 C.3     1  UNL111      0.1160
     12 C         123.5959  153.1317  146.6169 C.3     1  UNL111      0.0703
     13 C         123.3056  154.3530  145.7919 C.3     1  UNL111      0.0450
     14 C         122.2311  151.1196  147.7856 C.3     1  UNL111      0.1906
     15 C         121.7465  153.5847  148.0640 C.3     1  UNL111      0.0752
     16 C         121.3238  152.2729  146.0205 C.2     1  UNL111      0.0473
     17 C         122.3465  153.9540  144.7901 C.3     1  UNL111      0.0645
     18 C         122.0309  155.0153  147.6834 C.3     1  UNL111      0.0451
     19 C         121.2790  153.0150  144.8390 C.2     1  UNL111      0.0045
     20 C         123.5015  150.3434  147.6456 C.3     1  UNL111      0.2115
     21 C         124.6155  152.1642  146.4720 C.2     1  UNL111     -0.0043
     22 C         120.4966  151.2184  146.3091 C.2     1  UNL111      0.1251
     23 C         124.5118  151.0583  146.9220 C.2     1  UNL111      0.0424
     24 C         120.2902  152.7529  143.9212 C.2     1  UNL111      0.0161
     25 C         122.2861  156.6407  145.8429 C.3     1  UNL111     -0.0320
     26 C         119.3529  151.1424  145.5490 C.2     1  UNL111      0.1431
     27 C         119.2931  151.8469  144.3133 C.2     1  UNL111      0.0700
     28 C         117.4136  152.0210  146.4562 C.3     1  UNL111      0.2813
     29 C         116.0580  152.1949  145.9190 C.3     1  UNL111      0.2913
     30 C         115.4887  153.5859  145.8244 C.3     1  UNL111      0.2751
     31 C         116.4445  154.7229  146.1151 C.3     1  UNL111      0.2547
     32 C         117.7498  154.4632  146.7320 C.3     1  UNL111      0.2151
     33 C         118.8246  155.4857  147.0776 C.2     1  UNL111      0.0978
     34 H         123.7382  155.8909  147.1186 H       1  UNL111      0.1528
     35 H         121.5970  156.2790  145.0807 H       1  UNL111      0.0693
     36 H         123.0983  157.1754  145.3386 H       1  UNL111      0.0693
     37 H         121.8061  157.3307  146.5438 H       1  UNL111      0.0693
@<TRIPOS>UNITY_ATOM_ATTR
8 1
charge -1
10 1
charge 1
@<TRIPOS>BOND
     1     1    14    1
     2     1    22    1
     3     2    20    1
     4     3    26    1
     5     3    28    1
     6     4    28    1
     7     4    32    1
     8     5    29    1
     9     6    30    1
    10     7    31    1
    11     8    33   ar
    12     9    33   ar
    13    10    13    1
    14    10    18    1
    15    10    25    1
    16    11    12    1
    17    11    14    1
    18    11    15    1
    19    11    16    1
    20    12    13    1
    21    12    21    1
    22    13    17    1
    23    14    20    1
    24    15    18    1
    25    16    19    2
    26    16    22    1
    27    17    19    1
    28    19    24    1
    29    20    23    1
    30    21    23    2
    31    22    26    2
    32    24    27    2
    33    26    27    1
    34    28    29    1
    35    29    30    1
    36    30    31    1
    37    31    32    1
    38    32    33    1
    39    10    34    1
    40    25    35    1
    41    25    36    1
    42    25    37    1
@<TRIPOS>MOLECULE
163285670
 64 69 0 0 0
SMALL
GASTEIGER

@<TRIPOS>ATOM
      1 O         120.7396  154.2949  145.0672 O.2     1  UNL111     -0.5434
      2 O         122.0188  156.5566  144.7312 O.3     1  UNL111     -0.4348
      3 O         118.6582  154.8790  146.9455 O.2     1  UNL111     -0.5157
      4 O         117.4105  152.9249  146.4553 O.3     1  UNL111     -0.3489
      5 O         116.2514  156.3250  147.3358 O.3     1  UNL111     -0.4215
      6 O         113.9331  155.1674  146.1456 O.3     1  UNL111     -0.4304
      7 O         113.7441  152.3671  146.4181 O.3     1  UNL111     -0.4273
      8 O         115.3207  150.0247  146.0717 O.3     1  UNL111     -0.5218
      9 O         117.2588  150.6407  145.0225 O.2     1  UNL111     -0.3227
     10 N         124.2619  150.7105  146.4964 N.4     1  UNL111      0.4275
     11 C         122.7369  152.9885  145.5297 C.3     1  UNL111      0.0533
     12 C         124.2070  153.1392  145.9504 C.3     1  UNL111     -0.0026
     13 C         124.4501  152.1200  147.1062 C.3     1  UNL111     -0.0206
     14 C         122.1281  154.0877  144.6284 C.3     1  UNL111      0.0902
     15 C         122.4893  151.5736  144.9647 C.3     1  UNL111     -0.0259
     16 C         121.8689  153.2026  146.7256 C.3     1  UNL111      0.0238
     17 C         123.5444  152.3488  148.3563 C.3     1  UNL111     -0.0213
     18 C         122.8803  150.4584  145.9325 C.3     1  UNL111     -0.0364
     19 C         122.1670  152.8602  148.0332 C.3     1  UNL111     -0.0425
     20 C         122.8957  155.4413  144.6265 C.3     1  UNL111      0.0605
     21 C         124.5650  154.5632  146.2844 C.2     1  UNL111     -0.0869
     22 C         120.7285  153.8937  146.3788 C.3     1  UNL111      0.1094
     23 C         123.9549  155.5947  145.6805 C.2     1  UNL111     -0.0672
     24 C         121.2020  153.1432  149.0027 C.3     1  UNL111     -0.0567
     25 C         124.7147  149.5908  147.3969 C.3     1  UNL111     -0.0442
     26 C         119.7546  154.1608  147.3174 C.3     1  UNL111      0.1106
     27 C         119.9955  153.7797  148.6432 C.3     1  UNL111     -0.0097
     28 C         117.4225  154.1677  147.1527 C.3     1  UNL111      0.1551
     29 C         116.3152  155.0863  146.6114 C.3     1  UNL111      0.1004
     30 C         114.9727  154.3821  146.7491 C.3     1  UNL111      0.0831
     31 C         114.9882  152.9978  146.0958 C.3     1  UNL111      0.0981
     32 C         116.1873  152.1844  146.6014 C.3     1  UNL111      0.1790
     33 C         116.3331  150.8914  145.7877 C.2     1  UNL111      0.2630
     34 C         115.3353  148.8185  145.3083 C.3     1  UNL111      0.0473
     35 H         121.1226  156.2053  144.8992 H       1  UNL111      0.2424
     36 H         117.1294  156.7436  147.2379 H       1  UNL111      0.2455
     37 H         114.0480  156.0721  146.5028 H       1  UNL111      0.2420
     38 H         113.0498  153.0173  146.1820 H       1  UNL111      0.2426
     39 H         124.9071  150.6656  145.6954 H       1  UNL111      0.1328
     40 H         124.8580  152.8605  145.1088 H       1  UNL111      0.0720
     41 H         125.5027  152.1528  147.4141 H       1  UNL111      0.0854
     42 H         122.0657  153.7412  143.5887 H       1  UNL111      0.1417
     43 H         123.0695  151.4575  144.0394 H       1  UNL111      0.0544
     44 H         121.4368  151.4358  144.6848 H       1  UNL111      0.0544
     45 H         124.0302  153.1146  148.9756 H       1  UNL111      0.0615
     46 H         123.4687  151.4476  148.9712 H       1  UNL111      0.0615
     47 H         122.1839  150.3650  146.7715 H       1  UNL111      0.0738
     48 H         122.9187  149.4979  145.4069 H       1  UNL111      0.0738
     49 H         123.4078  155.5384  143.6610 H       1  UNL111      0.1221
     50 H         125.3640  154.7687  146.9944 H       1  UNL111      0.0812
     51 H         124.2603  156.6144  145.9122 H       1  UNL111      0.0909
     52 H         121.3844  152.9182  150.0522 H       1  UNL111      0.0940
     53 H         123.9960  149.4674  148.2093 H       1  UNL111      0.0667
     54 H         125.7079  149.8401  147.7788 H       1  UNL111      0.0667
     55 H         124.7679  148.6807  146.7932 H       1  UNL111      0.0667
     56 H         119.2802  154.0264  149.4240 H       1  UNL111      0.1146
     57 H         117.2768  154.0052  148.2290 H       1  UNL111      0.1981
     58 H         116.4986  155.3442  145.5610 H       1  UNL111      0.1391
     59 H         114.6953  154.2954  147.8078 H       1  UNL111      0.1259
     60 H         115.0247  153.1016  145.0041 H       1  UNL111      0.1297
     61 H         116.0764  151.8972  147.6546 H       1  UNL111      0.1688
     62 H         114.4275  148.2567  145.5449 H       1  UNL111      0.1104
     63 H         116.2031  148.2098  145.5792 H       1  UNL111      0.1104
     64 H         115.3345  149.0383  144.2359 H       1  UNL111      0.1104
@<TRIPOS>UNITY_ATOM_ATTR
10 1
charge 1
@<TRIPOS>BOND
     1     1    14    1
     2     1    22    1
     3     2    20    1
     4     3    26    1
     5     3    28    1
     6     4    28    1
     7     4    32    1
     8     5    29    1
     9     6    30    1
    10     7    31    1
    11     8    33    1
    12     8    34    1
    13     9    33    2
    14    10    13    1
    15    10    18    1
    16    10    25    1
    17    11    12    1
    18    11    14    1
    19    11    15    1
    20    11    16    1
    21    12    13    1
    22    12    21    1
    23    13    17    1
    24    14    20    1
    25    15    18    1
    26    16    19   ar
    27    16    22   ar
    28    17    19    1
    29    19    24   ar
    30    20    23    1
    31    21    23    2
    32    22    26   ar
    33    24    27   ar
    34    26    27   ar
    35    28    29    1
    36    29    30    1
    37    30    31    1
    38    31    32    1
    39    32    33    1
    40     2    35    1
    41     5    36    1
    42     6    37    1
    43     7    38    1
    44    10    39    1
    45    12    40    1
    46    13    41    1
    47    14    42    1
    48    15    43    1
    49    15    44    1
    50    17    45    1
    51    17    46    1
    52    18    47    1
    53    18    48    1
    54    20    49    1
    55    21    50    1
    56    23    51    1
    57    24    52    1
    58    25    53    1
    59    25    54    1
    60    25    55    1
    61    27    56    1
    62    28    57    1
    63    29    58    1
    64    30    59    1
    65    31    60    1
    66    32    61    1
    67    34    62    1
    68    34    63    1
    69    34    64    1
