@<TRIPOS>MOLECULE
5360621
 60 65 0 0 0
SMALL
GASTEIGER

@<TRIPOS>ATOM
      1 O         120.4375  151.9184  145.5370 O.2     1  UNL111     -0.5434
      2 O         118.7054  152.6473  147.5064 O.3     1  UNL111     -0.3935
      3 O         121.2093  149.1535  145.9367 O.2     1  UNL111     -0.5485
      4 O         117.0112  153.8732  146.4682 O.3     1  UNL111     -0.3865
      5 O         117.0972  150.3128  147.3341 O.3     1  UNL111     -0.4257
      6 O         114.3153  150.7661  146.7867 O.3     1  UNL111     -0.4316
      7 O         113.8982  152.7890  144.7793 O.3     1  UNL111     -0.4315
      8 O         116.3727  156.0862  144.6142 O.co2   1  UNL111     -0.5546
      9 O         114.5803  155.8157  146.0130 O.co2   1  UNL111     -0.5546
     10 N         124.3053  155.4231  145.5411 N.4     1  UNL111      0.4275
     11 C         121.8946  153.8389  145.8566 C.3     1  UNL111      0.0537
     12 C         122.3027  154.8698  146.9226 C.3     1  UNL111     -0.0025
     13 C         120.4216  153.3619  145.8401 C.3     1  UNL111      0.0935
     14 C         123.8610  154.9105  146.9315 C.3     1  UNL111     -0.0206
     15 C         122.3672  154.2874  144.4598 C.3     1  UNL111     -0.0258
     16 C         122.5328  152.5326  146.2044 C.3     1  UNL111      0.0233
     17 C         124.5247  153.5457  147.2990 C.3     1  UNL111     -0.0213
     18 C         123.8678  154.5481  144.3890 C.3     1  UNL111     -0.0364
     19 C         119.6330  153.6759  147.1465 C.3     1  UNL111      0.0768
     20 C         123.7646  152.3433  146.8093 C.3     1  UNL111     -0.0425
     21 C         121.6914  154.5619  148.2669 C.2     1  UNL111     -0.0864
     22 C         121.6667  151.4948  145.9544 C.3     1  UNL111      0.1050
     23 C         120.4863  153.9768  148.3550 C.2     1  UNL111     -0.0634
     24 C         125.7657  155.7722  145.4576 C.3     1  UNL111     -0.0442
     25 C         124.1619  151.0249  147.0539 C.3     1  UNL111     -0.0573
     26 C         122.0467  150.1942  146.1843 C.3     1  UNL111      0.0917
     27 C         123.3100  149.9519  146.7208 C.3     1  UNL111     -0.0140
     28 C         117.5906  152.5978  146.5996 C.3     1  UNL111      0.1188
     29 C         116.5488  151.6356  147.1740 C.3     1  UNL111      0.0885
     30 C         115.3583  151.5815  146.2197 C.3     1  UNL111      0.0765
     31 C         114.8117  152.9803  145.8724 C.3     1  UNL111      0.0783
     32 C         115.9560  153.9186  145.4776 C.3     1  UNL111      0.1059
     33 C         115.5690  155.4152  145.3385 C.2     1  UNL111      0.0691
     34 H         120.3630  149.5412  145.6396 H       1  UNL111      0.3393
     35 H         117.9204  150.4507  147.8440 H       1  UNL111      0.2441
     36 H         114.7712  149.9615  147.1019 H       1  UNL111      0.2418
     37 H         113.1607  152.2768  145.1607 H       1  UNL111      0.2419
     38 H         123.8146  156.3200  145.4111 H       1  UNL111      0.1328
     39 H         121.9333  155.8649  146.6352 H       1  UNL111      0.0720
     40 H         119.8764  153.8282  145.0088 H       1  UNL111      0.1422
     41 H         124.2072  155.6783  147.6348 H       1  UNL111      0.0854
     42 H         121.8342  155.2070  144.1840 H       1  UNL111      0.0544
     43 H         122.1093  153.5428  143.6953 H       1  UNL111      0.0544
     44 H         124.5503  153.4807  148.3950 H       1  UNL111      0.0615
     45 H         125.5617  153.4926  146.9563 H       1  UNL111      0.0615
     46 H         124.4576  153.6264  144.4208 H       1  UNL111      0.0738
     47 H         124.1164  155.0825  143.4654 H       1  UNL111      0.0738
     48 H         119.0943  154.6204  146.9890 H       1  UNL111      0.1271
     49 H         122.2061  154.8499  149.1806 H       1  UNL111      0.0812
     50 H         120.0312  153.8038  149.3281 H       1  UNL111      0.0915
     51 H         126.3568  154.8539  145.4488 H       1  UNL111      0.0667
     52 H         126.0187  156.3979  146.3170 H       1  UNL111      0.0667
     53 H         125.9225  156.3324  144.5318 H       1  UNL111      0.0667
     54 H         125.1106  150.8082  147.5407 H       1  UNL111      0.0939
     55 H         123.6148  148.9286  146.9279 H       1  UNL111      0.1139
     56 H         117.9485  152.2309  145.6304 H       1  UNL111      0.1708
     57 H         116.2206  151.9596  148.1690 H       1  UNL111      0.1333
     58 H         115.6509  151.0640  145.2962 H       1  UNL111      0.1245
     59 H         114.2422  153.3744  146.7225 H       1  UNL111      0.1247
     60 H         116.3699  153.6096  144.5075 H       1  UNL111      0.1358
@<TRIPOS>UNITY_ATOM_ATTR
8 1
charge -1
10 1
charge 1
@<TRIPOS>BOND
     1     1    13    1
     2     1    22    1
     3     2    19    1
     4     2    28    1
     5     3    26    1
     6     4    28    1
     7     4    32    1
     8     5    29    1
     9     6    30    1
    10     7    31    1
    11     8    33   ar
    12     9    33   ar
    13    10    14    1
    14    10    18    1
    15    10    24    1
    16    11    12    1
    17    11    13    1
    18    11    15    1
    19    11    16    1
    20    12    14    1
    21    12    21    1
    22    13    19    1
    23    14    17    1
    24    15    18    1
    25    16    20   ar
    26    16    22   ar
    27    17    20    1
    28    19    23    1
    29    20    25   ar
    30    21    23    2
    31    22    26   ar
    32    25    27   ar
    33    26    27   ar
    34    28    29    1
    35    29    30    1
    36    30    31    1
    37    31    32    1
    38    32    33    1
    39     3    34    1
    40     5    35    1
    41     6    36    1
    42     7    37    1
    43    10    38    1
    44    12    39    1
    45    13    40    1
    46    14    41    1
    47    15    42    1
    48    15    43    1
    49    17    44    1
    50    17    45    1
    51    18    46    1
    52    18    47    1
    53    19    48    1
    54    21    49    1
    55    23    50    1
    56    24    51    1
    57    24    52    1
    58    24    53    1
    59    25    54    1
    60    27    55    1
    61    28    56    1
    62    29    57    1
    63    30    58    1
    64    31    59    1
    65    32    60    1
