@<TRIPOS>MOLECULE
4058
 40 41 0 0 0
SMALL
GASTEIGER

@<TRIPOS>ATOM
      1 O         117.9017  151.7609  146.8635 O.3     1  UNL111     -0.5255
      2 O         118.6804  150.9922  144.8474 O.2     1  UNL111     -0.3339
      3 N         123.0147  152.2284  146.5881 N.4     1  UNL111      0.4256
      4 C         120.0784  152.4906  146.1819 C.3     1  UNL111      0.1029
      5 C         121.1062  152.2657  145.0326 C.3     1  UNL111     -0.0118
      6 C         120.7161  151.8657  147.4544 C.3     1  UNL111     -0.0118
      7 C         122.4653  152.8706  145.3396 C.3     1  UNL111     -0.0349
      8 C         122.1026  152.4139  147.7709 C.3     1  UNL111     -0.0349
      9 C         119.6882  153.9781  146.3024 C.3     1  UNL111     -0.0351
     10 C         118.8177  151.6645  145.8609 C.2     1  UNL111      0.2332
     11 C         124.4113  152.7094  146.8845 C.3     1  UNL111     -0.0457
     12 C         119.3515  154.7165  145.1495 C.3     1  UNL111     -0.0738
     13 C         119.5823  154.6387  147.5396 C.3     1  UNL111     -0.0738
     14 C         118.9924  156.0650  145.2255 C.3     1  UNL111     -0.0848
     15 C         119.2232  155.9885  147.6145 C.3     1  UNL111     -0.0848
     16 C         118.9386  156.7039  146.4576 C.3     1  UNL111     -0.0866
     17 C         116.6754  151.0571  146.6205 C.3     1  UNL111      0.0467
     18 C         115.7463  151.3126  147.7907 C.3     1  UNL111     -0.0318
     19 H         123.0956  151.2175  146.4076 H       1  UNL111      0.1304
     20 H         120.7466  152.6549  144.0739 H       1  UNL111      0.0586
     21 H         121.2399  151.1867  144.8656 H       1  UNL111      0.0586
     22 H         120.8000  150.7777  147.3150 H       1  UNL111      0.0586
     23 H         120.0696  151.9855  148.3319 H       1  UNL111      0.0586
     24 H         123.1696  152.6541  144.5293 H       1  UNL111      0.0740
     25 H         122.4253  153.9526  145.5030 H       1  UNL111      0.0740
     26 H         122.0927  153.4799  148.0173 H       1  UNL111      0.0740
     27 H         122.5443  151.8618  148.6075 H       1  UNL111      0.0740
     28 H         124.3775  153.7852  147.0765 H       1  UNL111      0.0663
     29 H         125.0376  152.4845  146.0173 H       1  UNL111      0.0663
     30 H         124.7774  152.1654  147.7591 H       1  UNL111      0.0663
     31 H         119.3283  154.2551  144.1636 H       1  UNL111      0.0905
     32 H         119.7423  154.1281  148.4849 H       1  UNL111      0.0905
     33 H         118.7327  156.6121  144.3213 H       1  UNL111      0.0877
     34 H         119.1425  156.4791  148.5826 H       1  UNL111      0.0877
     35 H         118.6456  157.7496  146.5186 H       1  UNL111      0.0874
     36 H         116.8796  149.9841  146.5349 H       1  UNL111      0.1149
     37 H         116.2159  151.4220  145.6952 H       1  UNL111      0.1149
     38 H         116.2024  150.9730  148.7264 H       1  UNL111      0.0426
     39 H         114.7935  150.7939  147.6530 H       1  UNL111      0.0426
     40 H         115.5528  152.3847  147.9018 H       1  UNL111      0.0426
@<TRIPOS>UNITY_ATOM_ATTR
3 1
charge 1
@<TRIPOS>BOND
     1     1    10    1
     2     1    17    1
     3     2    10    2
     4     3     7    1
     5     3     8    1
     6     3    11    1
     7     4     5    1
     8     4     6    1
     9     4     9    1
    10     4    10    1
    11     5     7    1
    12     6     8    1
    13     9    12   ar
    14     9    13   ar
    15    12    14   ar
    16    13    15   ar
    17    14    16   ar
    18    15    16   ar
    19    17    18    1
    20     3    19    1
    21     5    20    1
    22     5    21    1
    23     6    22    1
    24     6    23    1
    25     7    24    1
    26     7    25    1
    27     8    26    1
    28     8    27    1
    29    11    28    1
    30    11    29    1
    31    11    30    1
    32    12    31    1
    33    13    32    1
    34    14    33    1
    35    15    34    1
    36    16    35    1
    37    17    36    1
    38    17    37    1
    39    18    38    1
    40    18    39    1
    41    18    40    1
@<TRIPOS>MOLECULE
45359019
 23 24 0 0 0
SMALL
GASTEIGER

@<TRIPOS>ATOM
      1 O         117.6837  152.1791  146.7227 O.3     1  UNL111     -0.4742
      2 O         118.7233  150.5471  145.4844 O.2     1  UNL111     -0.3321
      3 N         123.2363  152.3517  146.5412 N.4     1  UNL111      0.4553
      4 C         120.0238  152.4358  146.2437 C.3     1  UNL111      0.1247
      5 C         120.6939  151.8269  147.5651 C.3     1  UNL111      0.0186
      6 C         120.9475  152.1948  144.9525 C.3     1  UNL111      0.0186
      7 C         122.1524  152.0511  147.4766 C.3     1  UNL111      0.0419
      8 C         122.3541  152.3651  145.3749 C.3     1  UNL111      0.0419
      9 C         119.7527  153.9440  146.3536 C.2     1  UNL111      0.0062
     10 C         118.7339  151.6248  146.0669 C.2     1  UNL111      0.2459
     11 C         123.8721  153.6282  146.7929 C.3     1  UNL111      0.1001
     12 C         119.0538  154.6069  145.3339 C.2     1  UNL111     -0.0031
     13 C         120.1813  154.7011  147.4482 C.2     1  UNL111     -0.0031
     14 C         118.7940  155.9740  145.4052 C.2     1  UNL111     -0.0016
     15 C         119.9264  156.0689  147.5270 C.2     1  UNL111     -0.0016
     16 C         119.2318  156.7051  146.5039 C.2     1  UNL111     -0.0006
     17 C         116.5491  151.4897  146.6567 C.3     1  UNL111      0.1948
     18 C         115.2330  150.7165  146.6132 C.3     1  UNL111      0.1149
     19 H         123.9301  151.5914  146.4925 H       1  UNL111      0.1752
     20 H         120.5162  150.7450  147.6111 H       1  UNL111      0.0696
     21 H         120.2685  152.2570  148.4777 H       1  UNL111      0.0696
     22 H         120.6986  152.8698  144.1276 H       1  UNL111      0.0696
     23 H         120.8353  151.1728  144.5737 H       1  UNL111      0.0696
@<TRIPOS>UNITY_ATOM_ATTR
3 1
charge 1
@<TRIPOS>BOND
     1     1    10    1
     2     1    17    1
     3     2    10    2
     4     3     7    1
     5     3     8    1
     6     3    11    1
     7     4     5    1
     8     4     6    1
     9     4     9    1
    10     4    10    1
    11     5     7    1
    12     6     8    1
    13     9    12    2
    14     9    13    1
    15    12    14    1
    16    13    15    2
    17    14    16    2
    18    15    16    1
    19    17    18    1
    20     3    19    1
    21     5    20    1
    22     5    21    1
    23     6    22    1
    24     6    23    1
@<TRIPOS>MOLECULE
71749926
 24 25 0 0 0
SMALL
GASTEIGER

@<TRIPOS>ATOM
      1 O         121.9900  153.9402  146.6088 O.3     1  UNL111     -0.4735
      2 O         120.4993  155.6690  146.3218 O.2     1  UNL111     -0.3308
      3 N         116.3527  154.6444  146.2455 N.4     1  UNL111      0.4600
      4 C         119.6425  153.4063  146.3927 C.3     1  UNL111      0.1530
      5 C         118.7424  153.6934  145.2075 C.3     1  UNL111      0.0961
      6 C         118.6553  153.7288  147.4950 C.3     1  UNL111      0.0961
      7 C         117.3004  154.2585  145.1703 C.3     1  UNL111      0.0696
      8 C         117.2154  154.2944  147.4018 C.3     1  UNL111      0.0696
      9 C         120.1214  151.9615  146.4150 C.3     1  UNL111     -0.0251
     10 C         120.7552  154.4689  146.4268 C.2     1  UNL111      0.2526
     11 C         115.1128  153.8942  146.2110 C.3     1  UNL111      0.1021
     12 C         120.2423  151.2462  147.6225 C.3     1  UNL111     -0.0725
     13 C         120.5275  151.3202  145.2272 C.3     1  UNL111     -0.0725
     14 C         120.7174  149.9326  147.6346 C.3     1  UNL111     -0.0847
     15 C         121.0030  150.0072  145.2452 C.3     1  UNL111     -0.0847
     16 C         121.0938  149.3134  146.4472 C.3     1  UNL111     -0.0866
     17 C         122.9801  154.8243  146.6561 C.3     1  UNL111      0.1949
     18 C         124.1330  155.8245  146.7152 C.3     1  UNL111      0.1149
     19 H         116.1811  155.6577  146.2220 H       1  UNL111      0.1772
     20 H         119.9800  151.6909  148.5812 H       1  UNL111      0.0907
     21 H         120.4914  151.8275  144.2638 H       1  UNL111      0.0907
     22 H         120.8026  149.3899  148.5745 H       1  UNL111      0.0877
     23 H         121.3113  149.5234  144.3199 H       1  UNL111      0.0877
     24 H         121.4678  148.2915  146.4600 H       1  UNL111      0.0874
@<TRIPOS>UNITY_ATOM_ATTR
3 1
charge 1
@<TRIPOS>BOND
     1     1    10    1
     2     1    17    1
     3     2    10    2
     4     3     7    1
     5     3     8    1
     6     3    11    1
     7     4     5    1
     8     4     6    1
     9     4     9    1
    10     4    10    1
    11     5     7    1
    12     6     8    1
    13     9    12   ar
    14     9    13   ar
    15    12    14   ar
    16    13    15   ar
    17    14    16   ar
    18    15    16   ar
    19    17    18    1
    20     3    19    1
    21    12    20    1
    22    13    21    1
    23    14    22    1
    24    15    23    1
    25    16    24    1
@<TRIPOS>MOLECULE
101106
 33 34 0 0 0
SMALL
GASTEIGER

@<TRIPOS>ATOM
      1 O         120.5814  151.4025  148.1154 O.co2   1  UNL111     -0.5648
      2 O         120.6408  150.8052  145.9185 O.co2   1  UNL111     -0.5648
      3 N         122.8913  154.0069  146.1470 N.4     1  UNL111      0.4251
      4 C         120.1002  153.0739  146.4618 C.3     1  UNL111      0.0343
      5 C         120.7434  153.3525  145.0822 C.3     1  UNL111     -0.0303
      6 C         120.8142  153.9796  147.4942 C.3     1  UNL111     -0.0303
      7 C         122.2517  153.1292  145.0918 C.3     1  UNL111     -0.0383
      8 C         122.3190  153.7367  147.5237 C.3     1  UNL111     -0.0383
      9 C         118.5812  153.2708  146.3781 C.3     1  UNL111     -0.0564
     10 C         120.4123  151.5945  146.8794 C.2     1  UNL111      0.0400
     11 C         124.3800  153.8551  146.1437 C.3     1  UNL111     -0.0457
     12 C         117.8125  152.4385  145.5412 C.3     1  UNL111     -0.0777
     13 C         117.9007  154.2725  147.0905 C.3     1  UNL111     -0.0777
     14 C         116.4311  152.6049  145.4144 C.3     1  UNL111     -0.0852
     15 C         116.5170  154.4396  146.9646 C.3     1  UNL111     -0.0852
     16 C         115.7829  153.6086  146.1246 C.3     1  UNL111     -0.0867
     17 H         122.6643  154.9780  145.9091 H       1  UNL111      0.1303
     18 H         120.5342  154.3896  144.7838 H       1  UNL111      0.0540
     19 H         120.3090  152.7265  144.2927 H       1  UNL111      0.0540
     20 H         120.4115  153.8372  148.5054 H       1  UNL111      0.0540
     21 H         120.6418  155.0363  147.2462 H       1  UNL111      0.0540
     22 H         122.5607  152.0988  145.2855 H       1  UNL111      0.0735
     23 H         122.6751  153.4383  144.1294 H       1  UNL111      0.0735
     24 H         122.7946  154.4504  148.2058 H       1  UNL111      0.0735
     25 H         122.6183  152.7271  147.8172 H       1  UNL111      0.0735
     26 H         124.6328  152.8221  146.3986 H       1  UNL111      0.0663
     27 H         124.7944  154.5507  146.8784 H       1  UNL111      0.0663
     28 H         124.7461  154.1115  145.1460 H       1  UNL111      0.0663
     29 H         118.2873  151.6288  144.9863 H       1  UNL111      0.0900
     30 H         118.4222  154.9380  147.7710 H       1  UNL111      0.0900
     31 H         115.8657  151.9384  144.7688 H       1  UNL111      0.0876
     32 H         116.0121  155.2150  147.5344 H       1  UNL111      0.0876
     33 H         114.7078  153.7331  146.0346 H       1  UNL111      0.0874
@<TRIPOS>UNITY_ATOM_ATTR
1 1
charge -1
3 1
charge 1
@<TRIPOS>BOND
     1     1    10   ar
     2     2    10   ar
     3     3     7    1
     4     3     8    1
     5     3    11    1
     6     4     5    1
     7     4     6    1
     8     4     9    1
     9     4    10    1
    10     5     7    1
    11     6     8    1
    12     9    12   ar
    13     9    13   ar
    14    12    14   ar
    15    13    15   ar
    16    14    16   ar
    17    15    16   ar
    18     3    17    1
    19     5    18    1
    20     5    19    1
    21     6    20    1
    22     6    21    1
    23     7    22    1
    24     7    23    1
    25     8    24    1
    26     8    25    1
    27    11    26    1
    28    11    27    1
    29    11    28    1
    30    12    29    1
    31    13    30    1
    32    14    31    1
    33    15    32    1
    34    16    33    1
@<TRIPOS>MOLECULE
551426
 37 38 0 0 0
SMALL
GASTEIGER

@<TRIPOS>ATOM
      1 O         119.6350  155.2518  145.6829 O.3     1  UNL111     -0.5280
      2 O         121.1089  155.0021  147.4176 O.2     1  UNL111     -0.3341
      3 N         122.8841  151.9201  146.3111 N.4     1  UNL111      0.4256
      4 C         120.1212  153.0124  146.4036 C.3     1  UNL111      0.1027
      5 C         120.7688  152.2255  147.5799 C.3     1  UNL111     -0.0118
      6 C         120.8547  152.6156  145.0967 C.3     1  UNL111     -0.0118
      7 C         122.2909  152.3012  147.6403 C.3     1  UNL111     -0.0349
      8 C         122.3660  152.7780  145.1900 C.3     1  UNL111     -0.0349
      9 C         118.6093  152.6988  146.3946 C.3     1  UNL111     -0.0352
     10 C         120.3323  154.5283  146.5976 C.2     1  UNL111      0.2322
     11 C         124.3907  151.9319  146.3636 C.3     1  UNL111     -0.0457
     12 C         117.8264  153.0175  147.5245 C.3     1  UNL111     -0.0738
     13 C         117.9535  152.1185  145.2952 C.3     1  UNL111     -0.0738
     14 C         116.4559  152.7497  147.5583 C.3     1  UNL111     -0.0848
     15 C         116.5809  151.8519  145.3319 C.3     1  UNL111     -0.0848
     16 C         115.8338  152.1638  146.4626 C.3     1  UNL111     -0.0866
     17 C         119.7585  156.6702  145.8209 C.3     1  UNL111      0.0459
     18 H         122.6142  150.9451  146.1179 H       1  UNL111      0.1304
     19 H         120.4816  151.1669  147.5038 H       1  UNL111      0.0586
     20 H         120.3846  152.5751  148.5464 H       1  UNL111      0.0586
     21 H         120.4936  153.2123  144.2492 H       1  UNL111      0.0586
     22 H         120.6456  151.5651  144.8528 H       1  UNL111      0.0586
     23 H         122.6686  153.2928  147.9033 H       1  UNL111      0.0740
     24 H         122.6692  151.5843  148.3778 H       1  UNL111      0.0740
     25 H         122.8398  152.4266  144.2671 H       1  UNL111      0.0740
     26 H         122.6747  153.8116  145.3787 H       1  UNL111      0.0740
     27 H         124.7260  152.9529  146.5649 H       1  UNL111      0.0663
     28 H         124.7648  151.5788  145.3991 H       1  UNL111      0.0663
     29 H         124.7070  151.2502  147.1574 H       1  UNL111      0.0663
     30 H         118.2662  153.4924  148.4002 H       1  UNL111      0.0905
     31 H         118.4747  151.8662  144.3764 H       1  UNL111      0.0905
     32 H         115.8712  153.0054  148.4393 H       1  UNL111      0.0877
     33 H         116.0899  151.4047  144.4699 H       1  UNL111      0.0877
     34 H         114.7660  151.9590  146.4856 H       1  UNL111      0.0874
     35 H         119.1268  157.1403  145.0624 H       1  UNL111      0.1102
     36 H         120.7946  156.9791  145.6522 H       1  UNL111      0.1102
     37 H         119.4134  156.9896  146.8091 H       1  UNL111      0.1102
@<TRIPOS>UNITY_ATOM_ATTR
3 1
charge 1
@<TRIPOS>BOND
     1     1    10    1
     2     1    17    1
     3     2    10    2
     4     3     7    1
     5     3     8    1
     6     3    11    1
     7     4     5    1
     8     4     6    1
     9     4     9    1
    10     4    10    1
    11     5     7    1
    12     6     8    1
    13     9    12   ar
    14     9    13   ar
    15    12    14   ar
    16    13    15   ar
    17    14    16   ar
    18    15    16   ar
    19     3    18    1
    20     5    19    1
    21     5    20    1
    22     6    21    1
    23     6    22    1
    24     7    23    1
    25     7    24    1
    26     8    25    1
    27     8    26    1
    28    11    27    1
    29    11    28    1
    30    11    29    1
    31    12    30    1
    32    13    31    1
    33    14    32    1
    34    15    33    1
    35    16    34    1
    36    17    35    1
    37    17    36    1
    38    17    37    1
@<TRIPOS>MOLECULE
21067
 40 41 0 0 0
SMALL
GASTEIGER

@<TRIPOS>ATOM
      1 O         123.0488  155.0177  147.1068 O.co2   1  UNL1111    -0.7585
      2 O         119.2248  151.0617  146.7136 O.3     1  UNL1111    -0.5255
      3 O         120.4310  151.4006  144.7991 O.2     1  UNL1111    -0.3339
      4 N         123.0119  153.7457  146.5977 N.3     1  UNL1111     0.4002
      5 C         120.0381  153.2900  146.3245 C.3     1  UNL1111     0.1025
      6 C         120.8671  154.1375  145.3183 C.3     1  UNL1111    -0.0145
      7 C         120.7965  153.2766  147.6782 C.3     1  UNL1111    -0.0145
      8 C         122.3426  153.7466  145.2434 C.3     1  UNL1111    -0.0535
      9 C         122.2507  152.8361  147.5323 C.3     1  UNL1111    -0.0535
     10 C         118.6103  153.8807  146.4024 C.3     1  UNL1111    -0.0352
     11 C         119.9312  151.8276  145.8332 C.2     1  UNL1111     0.2332
     12 C         124.4261  153.2516  146.4560 C.3     1  UNL1111    -0.0642
     13 C         117.8020  153.9026  145.2462 C.3     1  UNL1111    -0.0738
     14 C         118.0582  154.3918  147.5886 C.3     1  UNL1111    -0.0738
     15 C         116.5038  154.4176  145.2761 C.3     1  UNL1111    -0.0848
     16 C         116.7582  154.9074  147.6166 C.3     1  UNL1111    -0.0848
     17 C         115.9821  154.9210  146.4623 C.3     1  UNL1111    -0.0866
     18 C         119.0353  149.7016  146.3068 C.3     1  UNL1111     0.0467
     19 C         118.1891  149.0093  147.3569 C.3     1  UNL1111    -0.0318
     20 H         120.7997  155.1970  145.6019 H       1  UNL1111     0.0584
     21 H         120.4524  154.0668  144.3051 H       1  UNL1111     0.0584
     22 H         120.3031  152.6172  148.4030 H       1  UNL1111     0.0584
     23 H         120.7890  154.2822  148.1181 H       1  UNL1111     0.0584
     24 H         122.4875  152.7472  144.8223 H       1  UNL1111     0.0707
     25 H         122.8970  154.4664  144.6298 H       1  UNL1111     0.0707
     26 H         122.7663  152.8899  148.4980 H       1  UNL1111     0.0707
     27 H         122.3391  151.8190  147.1354 H       1  UNL1111     0.0707
     28 H         124.9458  153.9311  145.7750 H       1  UNL1111     0.0630
     29 H         124.3973  152.2342  146.0580 H       1  UNL1111     0.0630
     30 H         124.8847  153.2769  147.4483 H       1  UNL1111     0.0630
     31 H         118.1740  153.5132  144.2999 H       1  UNL1111     0.0905
     32 H         118.6185  154.4060  148.5193 H       1  UNL1111     0.0905
     33 H         115.9019  154.4255  144.3711 H       1  UNL1111     0.0877
     34 H         116.3540  155.3016  148.5458 H       1  UNL1111     0.0877
     35 H         114.9735  155.3243  146.4879 H       1  UNL1111     0.0874
     36 H         120.0078  149.2036  146.2261 H       1  UNL1111     0.1149
     37 H         118.5223  149.6715  145.3390 H       1  UNL1111     0.1149
     38 H         118.6790  149.0504  148.3353 H       1  UNL1111     0.0426
     39 H         118.0166  147.9626  147.0915 H       1  UNL1111     0.0426
     40 H         117.2217  149.5113  147.4642 H       1  UNL1111     0.0426
@<TRIPOS>UNITY_ATOM_ATTR
1 1
charge -1
4 1
charge 1
@<TRIPOS>BOND
     1     1     4    1
     2     2    11    1
     3     2    18    1
     4     3    11    2
     5     4     8    1
     6     4     9    1
     7     4    12    1
     8     5     6    1
     9     5     7    1
    10     5    10    1
    11     5    11    1
    12     6     8    1
    13     7     9    1
    14    10    13   ar
    15    10    14   ar
    16    13    15   ar
    17    14    16   ar
    18    15    17   ar
    19    16    17   ar
    20    18    19    1
    21     6    20    1
    22     6    21    1
    23     7    22    1
    24     7    23    1
    25     8    24    1
    26     8    25    1
    27     9    26    1
    28     9    27    1
    29    12    28    1
    30    12    29    1
    31    12    30    1
    32    13    31    1
    33    14    32    1
    34    15    33    1
    35    16    34    1
    36    17    35    1
    37    18    36    1
    38    18    37    1
    39    19    38    1
    40    19    39    1
    41    19    40    1
