@<TRIPOS>MOLECULE
4095
 51 52 0 0 0
SMALL
GASTEIGER

@<TRIPOS>ATOM
      1 O         120.8222  154.5600  144.7952 O.2     1  UNL111     -0.4161
      2 N         122.7208  154.0585  146.8204 N.4     1  UNL111      0.4245
      3 C         119.5893  153.3941  146.5322 C.3     1  UNL111      0.0774
      4 C         120.3088  154.1199  147.7456 C.3     1  UNL111     -0.0173
      5 C         121.6604  154.8699  147.5332 C.3     1  UNL111     -0.0375
      6 C         118.0948  153.0658  146.8063 C.3     1  UNL111     -0.0426
      7 C         120.3059  152.0336  146.2561 C.3     1  UNL111     -0.0426
      8 C         119.7294  154.4235  145.3656 C.2     1  UNL111      0.0993
      9 C         122.1905  155.4004  148.8703 C.3     1  UNL111     -0.0596
     10 C         118.5739  155.3727  145.0644 C.3     1  UNL111      0.0151
     11 C         117.3361  152.4189  145.8052 C.3     1  UNL111     -0.0747
     12 C         120.3946  151.0720  147.2869 C.3     1  UNL111     -0.0747
     13 C         117.4498  153.3476  148.0239 C.3     1  UNL111     -0.0747
     14 C         120.7994  151.6632  144.9909 C.3     1  UNL111     -0.0747
     15 C         123.3552  152.9449  147.6022 C.3     1  UNL111     -0.0460
     16 C         123.7688  154.9106  146.1460 C.3     1  UNL111     -0.0460
     17 C         118.9991  156.5376  144.1847 C.3     1  UNL111     -0.0497
     18 C         115.9917  152.0976  146.0031 C.3     1  UNL111     -0.0848
     19 C         121.0154  149.8372  147.0826 C.3     1  UNL111     -0.0848
     20 C         116.1024  153.0253  148.2183 C.3     1  UNL111     -0.0848
     21 C         121.4252  150.4288  144.7895 C.3     1  UNL111     -0.0848
     22 C         115.3738  152.4053  147.2088 C.3     1  UNL111     -0.0866
     23 C         121.5427  149.5216  145.8365 C.3     1  UNL111     -0.0866
     24 H         122.2432  153.6310  146.0103 H       1  UNL111      0.1299
     25 H         120.4128  153.4341  148.5954 H       1  UNL111      0.0588
     26 H         119.6320  154.9112  148.1002 H       1  UNL111      0.0588
     27 H         121.4664  155.7426  146.8980 H       1  UNL111      0.0784
     28 H         122.3789  154.5925  149.5847 H       1  UNL111      0.0402
     29 H         121.4571  156.0746  149.3265 H       1  UNL111      0.0402
     30 H         123.1165  155.9688  148.7430 H       1  UNL111      0.0402
     31 H         118.1915  155.7724  146.0089 H       1  UNL111      0.0645
     32 H         117.7801  154.8204  144.5550 H       1  UNL111      0.0645
     33 H         117.7849  152.1467  144.8507 H       1  UNL111      0.0905
     34 H         119.9490  151.2561  148.2639 H       1  UNL111      0.0905
     35 H         117.9623  153.8103  148.8618 H       1  UNL111      0.0905
     36 H         120.6924  152.3045  144.1181 H       1  UNL111      0.0905
     37 H         124.1059  153.3714  148.2733 H       1  UNL111      0.0663
     38 H         123.8238  152.2599  146.8907 H       1  UNL111      0.0663
     39 H         122.5900  152.4286  148.1805 H       1  UNL111      0.0663
     40 H         124.3787  155.3954  146.9116 H       1  UNL111      0.0663
     41 H         123.2651  155.6504  145.5188 H       1  UNL111      0.0663
     42 H         124.3828  154.2548  145.5223 H       1  UNL111      0.0663
     43 H         119.8007  157.1147  144.6576 H       1  UNL111      0.0306
     44 H         118.1531  157.2085  144.0065 H       1  UNL111      0.0306
     45 H         119.3654  156.1854  143.2147 H       1  UNL111      0.0306
     46 H         115.4283  151.5994  145.2170 H       1  UNL111      0.0877
     47 H         121.0597  149.1084  147.8896 H       1  UNL111      0.0877
     48 H         115.6191  153.2523  149.1665 H       1  UNL111      0.0877
     49 H         121.7951  150.1619  143.8009 H       1  UNL111      0.0877
     50 H         114.3278  152.1524  147.3660 H       1  UNL111      0.0874
     51 H         122.0078  148.5523  145.6694 H       1  UNL111      0.0874
@<TRIPOS>UNITY_ATOM_ATTR
2 1
charge 1
@<TRIPOS>BOND
     1     1     8    2
     2     2     5    1
     3     2    15    1
     4     2    16    1
     5     3     4    1
     6     3     6    1
     7     3     7    1
     8     3     8    1
     9     4     5    1
    10     5     9    1
    11     6    11   ar
    12     6    13   ar
    13     7    12   ar
    14     7    14   ar
    15     8    10    1
    16    10    17    1
    17    11    18   ar
    18    12    19   ar
    19    13    20   ar
    20    14    21   ar
    21    18    22   ar
    22    19    23   ar
    23    20    22   ar
    24    21    23   ar
    25     2    24    1
    26     4    25    1
    27     4    26    1
    28     5    27    1
    29     9    28    1
    30     9    29    1
    31     9    30    1
    32    10    31    1
    33    10    32    1
    34    11    33    1
    35    12    34    1
    36    13    35    1
    37    14    36    1
    38    15    37    1
    39    15    38    1
    40    15    39    1
    41    16    40    1
    42    16    41    1
    43    16    42    1
    44    17    43    1
    45    17    44    1
    46    17    45    1
    47    18    46    1
    48    19    47    1
    49    20    48    1
    50    21    49    1
    51    22    50    1
    52    23    51    1
@<TRIPOS>MOLECULE
45039700
 27 28 0 0 0
SMALL
GASTEIGER

@<TRIPOS>ATOM
      1 O         121.4904  151.4576  147.3691 O.2     1  UNL111     -0.4099
      2 N         123.0743  151.7730  145.3244 N.4     1  UNL111      0.4627
      3 C         119.8430  152.9724  146.4010 C.3     1  UNL111      0.1163
      4 C         120.8427  152.8001  145.3062 C.3     1  UNL111      0.0715
      5 C         122.0124  152.4185  144.6004 C.3     1  UNL111      0.0562
      6 C         118.4246  152.6671  145.9326 C.2     1  UNL111      0.0025
      7 C         120.0151  154.3945  146.9375 C.2     1  UNL111      0.0025
      8 C         120.3318  151.8999  147.4325 C.2     1  UNL111      0.1253
      9 C         122.0421  152.7417  143.1272 C.3     1  UNL111      0.0510
     10 C         119.4372  151.3807  148.4331 C.3     1  UNL111      0.0834
     11 C         117.3193  153.2342  146.5833 C.2     1  UNL111     -0.0034
     12 C         119.8277  155.4942  146.0848 C.2     1  UNL111     -0.0034
     13 C         118.1793  151.7389  144.9131 C.2     1  UNL111     -0.0034
     14 C         120.3679  154.6460  148.2676 C.2     1  UNL111     -0.0034
     15 C         123.5405  150.5072  144.7340 C.3     1  UNL111      0.1036
     16 C         124.2226  152.6614  145.5754 C.3     1  UNL111      0.1036
     17 C         118.5168  150.8172  149.4190 C.3     1  UNL111     -0.0328
     18 C         116.0165  152.9151  146.2079 C.2     1  UNL111     -0.0015
     19 C         119.9947  156.7986  146.5437 C.2     1  UNL111     -0.0015
     20 C         116.8783  151.4163  144.5316 C.2     1  UNL111     -0.0015
     21 C         120.5367  155.9491  148.7317 C.2     1  UNL111     -0.0015
     22 C         115.7972  152.0061  145.1789 C.2     1  UNL111     -0.0006
     23 C         120.3518  157.0247  147.8686 C.2     1  UNL111     -0.0006
     24 H         122.7019  151.5152  146.2612 H       1  UNL111      0.1787
     25 H         117.7751  150.1781  148.9304 H       1  UNL111      0.0355
     26 H         117.9845  151.6091  149.9531 H       1  UNL111      0.0355
     27 H         119.0566  150.2109  150.1519 H       1  UNL111      0.0355
@<TRIPOS>UNITY_ATOM_ATTR
2 1
charge 1
@<TRIPOS>BOND
     1     1     8    2
     2     2     5    1
     3     2    15    1
     4     2    16    1
     5     3     4    1
     6     3     6    1
     7     3     7    1
     8     3     8    1
     9     4     5    1
    10     5     9    1
    11     6    11    2
    12     6    13    1
    13     7    12    2
    14     7    14    1
    15     8    10    1
    16    10    17    1
    17    11    18    1
    18    12    19    1
    19    13    20    2
    20    14    21    2
    21    18    22    2
    22    19    23    2
    23    20    22    1
    24    21    23    1
    25     2    24    1
    26    17    25    1
    27    17    26    1
    28    17    27    1
@<TRIPOS>MOLECULE
101395619
 33 34 0 0 0
SMALL
GASTEIGER

@<TRIPOS>ATOM
      1 O         118.3680  151.9249  144.5413 O.2     1  UNL111     -0.4099
      2 N         116.5569  152.6292  147.7228 N.4     1  UNL111      0.4313
      3 C         119.9283  152.9604  146.1147 C.3     1  UNL111      0.1159
      4 C         118.9229  152.5930  147.1531 C.3     1  UNL111      0.0660
      5 C         117.8642  152.1313  147.9543 C.3     1  UNL111      0.0270
      6 C         121.3616  152.7168  146.5925 C.2     1  UNL111      0.0025
      7 C         119.6928  154.4463  145.7928 C.2     1  UNL111      0.0025
      8 C         119.5381  152.0469  144.9095 C.2     1  UNL111      0.1253
      9 C         118.1163  150.9617  148.8455 C.3     1  UNL111      0.0451
     10 C         120.5393  151.2468  144.2465 C.3     1  UNL111      0.0834
     11 C         122.4422  153.3102  145.9220 C.2     1  UNL111     -0.0034
     12 C         119.8288  155.4152  146.8001 C.2     1  UNL111     -0.0034
     13 C         121.6455  151.8553  147.6588 C.2     1  UNL111     -0.0034
     14 C         119.3517  154.8783  144.5063 C.2     1  UNL111     -0.0034
     15 C         115.7563  151.6613  146.9041 C.3     1  UNL111     -0.0413
     16 C         115.8908  153.0084  149.0077 C.3     1  UNL111     -0.0413
     17 C         121.5380  150.4005  143.5982 C.3     1  UNL111     -0.0328
     18 C         123.7565  153.0714  146.3170 C.2     1  UNL111     -0.0015
     19 C         119.6202  156.7661  146.5328 C.2     1  UNL111     -0.0015
     20 C         122.9578  151.6154  148.0613 C.2     1  UNL111     -0.0015
     21 C         119.1350  156.2280  144.2354 C.2     1  UNL111     -0.0015
     22 C         124.0130  152.2248  147.3900 C.2     1  UNL111     -0.0006
     23 C         119.2690  157.1712  145.2495 C.2     1  UNL111     -0.0006
     24 H         116.6406  153.4840  147.1627 H       1  UNL111      0.1374
     25 H         115.5875  150.7418  147.4725 H       1  UNL111      0.0673
     26 H         116.2843  151.4585  145.9693 H       1  UNL111      0.0673
     27 H         114.7986  152.1395  146.6767 H       1  UNL111      0.0673
     28 H         115.6665  152.1107  149.5924 H       1  UNL111      0.0673
     29 H         114.9599  153.5247  148.7547 H       1  UNL111      0.0673
     30 H         116.5440  153.6925  149.5589 H       1  UNL111      0.0673
     31 H         122.1031  149.8322  144.3431 H       1  UNL111      0.0355
     32 H         122.2451  151.0026  143.0211 H       1  UNL111      0.0355
     33 H         121.0606  149.6877  142.9195 H       1  UNL111      0.0355
@<TRIPOS>UNITY_ATOM_ATTR
2 1
charge 1
@<TRIPOS>BOND
     1     1     8    2
     2     2     5    1
     3     2    15    1
     4     2    16    1
     5     3     4    1
     6     3     6    1
     7     3     7    1
     8     3     8    1
     9     4     5    1
    10     5     9    1
    11     6    11    2
    12     6    13    1
    13     7    12    2
    14     7    14    1
    15     8    10    1
    16    10    17    1
    17    11    18    1
    18    12    19    1
    19    13    20    2
    20    14    21    2
    21    18    22    2
    22    19    23    2
    23    20    22    1
    24    21    23    1
    25     2    24    1
    26    15    25    1
    27    15    26    1
    28    15    27    1
    29    16    28    1
    30    16    29    1
    31    16    30    1
    32    17    31    1
    33    17    32    1
    34    17    33    1
@<TRIPOS>MOLECULE
73425349
 25 26 0 0 0
SMALL
GASTEIGER

@<TRIPOS>ATOM
      1 O         117.1210  150.8307  146.5024 O.2     1  UNL1111    -0.3902
      2 N         117.9397  152.9897  146.2526 N.am    1  UNL1111    -0.3218
      3 N         120.1692  155.1666  146.4721 N.pl3   1  UNL1111    -0.3715
      4 C         117.8232  154.3736  146.6995 C.3     1  UNL1111     0.0088
      5 C         118.9975  152.6202  145.3256 C.3     1  UNL1111     0.0258
      6 C         118.7941  155.3669  146.0504 C.3     1  UNL1111    -0.0033
      7 C         120.3758  152.7596  145.9262 C.3     1  UNL1111    -0.0341
      8 C         120.8797  153.9814  146.4109 C.3     1  UNL1111    -0.0222
      9 C         121.1883  151.6051  145.9666 C.3     1  UNL1111    -0.0693
     10 C         122.1913  153.9934  146.9239 C.3     1  UNL1111    -0.0586
     11 C         117.1102  152.0230  146.7784 C.2     1  UNL1111     0.1407
     12 C         122.4834  151.6479  146.4756 C.3     1  UNL1111    -0.0822
     13 C         122.9877  152.8469  146.9543 C.3     1  UNL1111    -0.0787
     14 H         120.6780  155.9937  146.7629 H       1  UNL1111     0.1667
     15 H         117.9416  154.3782  147.7905 H       1  UNL1111     0.0790
     16 H         116.7921  154.6864  146.4947 H       1  UNL1111     0.0790
     17 H         118.9157  153.2301  144.4190 H       1  UNL1111     0.0870
     18 H         118.8368  151.5883  144.9916 H       1  UNL1111     0.0870
     19 H         118.7255  155.3445  144.9573 H       1  UNL1111     0.0753
     20 H         118.4988  156.3786  146.3528 H       1  UNL1111     0.0753
     21 H         120.8037  150.6540  145.6011 H       1  UNL1111     0.0921
     22 H         122.6092  154.9164  147.3196 H       1  UNL1111     0.0989
     23 H         116.3828  152.4373  147.4970 H       1  UNL1111     0.2394
     24 H         123.0906  150.7474  146.5004 H       1  UNL1111     0.0880
     25 H         123.9946  152.8946  147.3590 H       1  UNL1111     0.0890
@<TRIPOS>BOND
     1     1    11    2
     2     2     4    1
     3     2     5    1
     4     2    11   am
     5     3     6    1
     6     3     8    1
     7     4     6    1
     8     5     7    1
     9     7     8   ar
    10     7     9   ar
    11     8    10   ar
    12     9    12   ar
    13    10    13   ar
    14    12    13   ar
    15     3    14    1
    16     4    15    1
    17     4    16    1
    18     5    17    1
    19     5    18    1
    20     6    19    1
    21     6    20    1
    22     9    21    1
    23    10    22    1
    24    11    23    1
    25    12    24    1
    26    13    25    1
@<TRIPOS>MOLECULE
643985
 51 52 0 0 0
SMALL
GASTEIGER

@<TRIPOS>ATOM
      1 O         120.3552  151.5051  148.2989 O.2     1  UNL111     -0.4161
      2 N         123.1598  151.1942  146.1071 N.4     1  UNL111      0.4245
      3 C         119.6418  152.9381  146.4559 C.3     1  UNL111      0.0774
      4 C         120.8608  152.2337  145.7241 C.3     1  UNL111     -0.0173
      5 C         122.2785  152.4507  146.3247 C.3     1  UNL111     -0.0375
      6 C         118.3166  152.6493  145.6778 C.3     1  UNL111     -0.0426
      7 C         119.9792  154.4462  146.5402 C.3     1  UNL111     -0.0426
      8 C         119.4838  152.2673  147.8617 C.2     1  UNL111      0.0993
      9 C         123.0457  153.6374  145.7272 C.3     1  UNL111     -0.0596
     10 C         118.2198  152.5579  148.6696 C.3     1  UNL111      0.0151
     11 C         117.2865  153.6101  145.5959 C.3     1  UNL111     -0.0747
     12 C         120.0238  155.2205  145.3582 C.3     1  UNL111     -0.0747
     13 C         118.0513  151.3815  145.1209 C.3     1  UNL111     -0.0747
     14 C         120.2918  155.0904  147.7512 C.3     1  UNL111     -0.0747
     15 C         123.2978  150.7288  144.6837 C.3     1  UNL111     -0.0460
     16 C         122.8039  150.0597  147.0401 C.3     1  UNL111     -0.0460
     17 C         118.4211  152.3103  150.1550 C.3     1  UNL111     -0.0497
     18 C         116.0827  153.3379  144.9398 C.3     1  UNL111     -0.0848
     19 C         120.3392  156.5799  145.3915 C.3     1  UNL111     -0.0848
     20 C         116.8440  151.1093  144.4689 C.3     1  UNL111     -0.0848
     21 C         120.6061  156.4528  147.7802 C.3     1  UNL111     -0.0848
     22 C         115.8641  152.0895  144.3711 C.3     1  UNL111     -0.0866
     23 C         120.6280  157.1959  146.6037 C.3     1  UNL111     -0.0866
     24 H         124.1043  151.4712  146.4049 H       1  UNL111      0.1299
     25 H         120.8731  152.5269  144.6650 H       1  UNL111      0.0588
     26 H         120.6634  151.1581  145.7213 H       1  UNL111      0.0588
     27 H         122.2577  152.5886  147.4092 H       1  UNL111      0.0784
     28 H         122.9481  153.6829  144.6382 H       1  UNL111      0.0402
     29 H         124.1133  153.5870  145.9695 H       1  UNL111      0.0402
     30 H         122.6914  154.5857  146.1339 H       1  UNL111      0.0402
     31 H         117.4152  151.9162  148.2972 H       1  UNL111      0.0645
     32 H         117.9265  153.6019  148.5283 H       1  UNL111      0.0645
     33 H         117.3901  154.5950  146.0497 H       1  UNL111      0.0905
     34 H         119.7928  154.7743  144.3909 H       1  UNL111      0.0905
     35 H         118.7567  150.5595  145.1972 H       1  UNL111      0.0905
     36 H         120.3021  154.5631  148.7023 H       1  UNL111      0.0905
     37 H         122.3335  150.3562  144.3315 H       1  UNL111      0.0663
     38 H         124.0454  149.9311  144.6631 H       1  UNL111      0.0663
     39 H         123.6443  151.5647  144.0729 H       1  UNL111      0.0663
     40 H         121.8267  149.6581  146.7658 H       1  UNL111      0.0663
     41 H         122.8125  150.4418  148.0633 H       1  UNL111      0.0663
     42 H         123.5733  149.2898  146.9325 H       1  UNL111      0.0663
     43 H         118.6563  151.2594  150.3523 H       1  UNL111      0.0306
     44 H         117.5128  152.5653  150.7097 H       1  UNL111      0.0306
     45 H         119.2442  152.9175  150.5462 H       1  UNL111      0.0306
     46 H         115.3102  154.1020  144.8825 H       1  UNL111      0.0877
     47 H         120.3508  157.1606  144.4716 H       1  UNL111      0.0877
     48 H         116.6617  150.1233  144.0466 H       1  UNL111      0.0877
     49 H         120.8309  156.9398  148.7274 H       1  UNL111      0.0877
     50 H         114.9244  151.8763  143.8670 H       1  UNL111      0.0874
     51 H         120.8657  158.2571  146.6328 H       1  UNL111      0.0874
@<TRIPOS>UNITY_ATOM_ATTR
2 1
charge 1
@<TRIPOS>BOND
     1     1     8    2
     2     2     5    1
     3     2    15    1
     4     2    16    1
     5     3     4    1
     6     3     6    1
     7     3     7    1
     8     3     8    1
     9     4     5    1
    10     5     9    1
    11     6    11   ar
    12     6    13   ar
    13     7    12   ar
    14     7    14   ar
    15     8    10    1
    16    10    17    1
    17    11    18   ar
    18    12    19   ar
    19    13    20   ar
    20    14    21   ar
    21    18    22   ar
    22    19    23   ar
    23    20    22   ar
    24    21    23   ar
    25     2    24    1
    26     4    25    1
    27     4    26    1
    28     5    27    1
    29     9    28    1
    30     9    29    1
    31     9    30    1
    32    10    31    1
    33    10    32    1
    34    11    33    1
    35    12    34    1
    36    13    35    1
    37    14    36    1
    38    15    37    1
    39    15    38    1
    40    15    39    1
    41    16    40    1
    42    16    41    1
    43    16    42    1
    44    17    43    1
    45    17    44    1
    46    17    45    1
    47    18    46    1
    48    19    47    1
    49    20    48    1
    50    21    49    1
    51    22    50    1
    52    23    51    1
@<TRIPOS>MOLECULE
6837
 26 27 0 0 0
SMALL
GASTEIGER

@<TRIPOS>ATOM
      1 N         119.9990  156.4709  145.7811 N.1     1  UNL1111    -0.2875
      2 C         119.8920  154.0910  146.9325 C.3     1  UNL1111     0.1043
      3 C         118.5823  153.3334  146.6951 C.ar    1  UNL1111    -0.0369
      4 C         121.1267  153.2565  146.5986 C.ar    1  UNL1111    -0.0369
      5 C         118.1989  152.3317  147.6070 C.ar    1  UNL1111    -0.0734
      6 C         121.2884  152.6550  145.3385 C.ar    1  UNL1111    -0.0734
      7 C         117.7554  153.5709  145.5829 C.ar    1  UNL1111    -0.0734
      8 C         122.1473  153.0995  147.5526 C.ar    1  UNL1111    -0.0734
      9 C         117.0216  151.6048  147.4209 C.ar    1  UNL1111    -0.0846
     10 C         122.4312  151.9075  145.0480 C.ar    1  UNL1111    -0.0846
     11 C         116.5773  152.8424  145.4011 C.ar    1  UNL1111    -0.0846
     12 C         123.2895  152.3528  147.2573 C.ar    1  UNL1111    -0.0846
     13 C         119.9575  155.4232  146.2830 C.1     1  UNL1111     0.0560
     14 C         116.2103  151.8621  146.3194 C.ar    1  UNL1111    -0.0866
     15 C         123.4301  151.7562  146.0067 C.ar    1  UNL1111    -0.0866
     16 H         119.9113  154.2982  148.0135 H       1  UNL1111     0.1177
     17 H         118.8226  152.1046  148.4700 H       1  UNL1111     0.0908
     18 H         120.5254  152.7602  144.5696 H       1  UNL1111     0.0908
     19 H         118.0110  154.3227  144.8380 H       1  UNL1111     0.0908
     20 H         122.0658  153.5604  148.5351 H       1  UNL1111     0.0908
     21 H         116.7400  150.8343  148.1342 H       1  UNL1111     0.0877
     22 H         122.5422  151.4446  144.0705 H       1  UNL1111     0.0877
     23 H         115.9458  153.0405  144.5382 H       1  UNL1111     0.0877
     24 H         124.0729  152.2392  148.0026 H       1  UNL1111     0.0877
     25 H         115.2939  151.2961  146.1738 H       1  UNL1111     0.0874
     26 H         124.3202  151.1761  145.7771 H       1  UNL1111     0.0874
@<TRIPOS>BOND
     1     1    13    3
     2     2     3    1
     3     2     4    1
     4     2    13    1
     5     3     5   ar
     6     3     7   ar
     7     4     6   ar
     8     4     8   ar
     9     5     9   ar
    10     6    10   ar
    11     7    11   ar
    12     8    12   ar
    13     9    14   ar
    14    10    15   ar
    15    11    14   ar
    16    12    15   ar
    17     2    16    1
    18     5    17    1
    19     6    18    1
    20     7    19    1
    21     8    20    1
    22     9    21    1
    23    10    22    1
    24    11    23    1
    25    12    24    1
    26    14    25    1
    27    15    26    1
@<TRIPOS>MOLECULE
31331
 44 45 0 0 0
SMALL
GASTEIGER

@<TRIPOS>ATOM
      1 N         122.8224  151.4558  146.1460 N.4     1  UNL111      0.4247
      2 N         120.9654  152.2348  143.9804 N.1     1  UNL111     -0.2854
      3 C         119.7314  152.9657  146.1966 C.3     1  UNL111      0.1131
      4 C         120.5605  152.0933  147.2264 C.3     1  UNL111     -0.0081
      5 C         122.1074  152.2871  147.2246 C.3     1  UNL111     -0.0355
      6 C         119.8579  154.4928  146.4152 C.ar    1  UNL111     -0.0316
      7 C         118.2466  152.5336  146.3106 C.ar    1  UNL111     -0.0316
      8 C         122.6830  151.9559  148.6061 C.3     1  UNL111     -0.0593
      9 C         120.3267  152.6085  144.8773 C.1     1  UNL111      0.0629
     10 C         119.5360  155.3785  145.3636 C.ar    1  UNL111     -0.0720
     11 C         117.5604  151.8868  145.2634 C.ar    1  UNL111     -0.0720
     12 C         120.2312  155.0633  147.6477 C.ar    1  UNL111     -0.0720
     13 C         117.5283  152.7810  147.5001 C.ar    1  UNL111     -0.0720
     14 C         122.8666  149.9652  146.3570 C.3     1  UNL111     -0.0459
     15 C         124.1981  151.9920  145.8152 C.3     1  UNL111     -0.0459
     16 C         119.6367  156.7625  145.5219 C.ar    1  UNL111     -0.0843
     17 C         116.2238  151.5002  145.4059 C.ar    1  UNL111     -0.0843
     18 C         120.3292  156.4496  147.8032 C.ar    1  UNL111     -0.0843
     19 C         116.1932  152.3936  147.6380 C.ar    1  UNL111     -0.0843
     20 C         120.0406  157.2972  146.7393 C.ar    1  UNL111     -0.0865
     21 C         115.5422  151.7513  146.5916 C.ar    1  UNL111     -0.0865
     22 H         122.3205  151.5769  145.2482 H       1  UNL111      0.1300
     23 H         120.3286  151.0320  147.0640 H       1  UNL111      0.0622
     24 H         120.1900  152.2978  148.2398 H       1  UNL111      0.0622
     25 H         122.3473  153.3306  146.9966 H       1  UNL111      0.0789
     26 H         122.4250  150.9394  148.9209 H       1  UNL111      0.0402
     27 H         122.2762  152.6413  149.3581 H       1  UNL111      0.0402
     28 H         123.7712  152.0607  148.6337 H       1  UNL111      0.0402
     29 H         119.1858  155.0089  144.3996 H       1  UNL111      0.0911
     30 H         118.0316  151.6690  144.3068 H       1  UNL111      0.0911
     31 H         120.4305  154.4596  148.5283 H       1  UNL111      0.0911
     32 H         117.9892  153.2952  148.3410 H       1  UNL111      0.0911
     33 H         123.5197  149.7445  147.2045 H       1  UNL111      0.0663
     34 H         123.2625  149.5105  145.4444 H       1  UNL111      0.0663
     35 H         121.8530  149.6023  146.5322 H       1  UNL111      0.0663
     36 H         124.8592  151.8258  146.6684 H       1  UNL111      0.0663
     37 H         124.1038  153.0569  145.5874 H       1  UNL111      0.0663
     38 H         124.5640  151.4581  144.9339 H       1  UNL111      0.0663
     39 H         119.3846  157.4249  144.6961 H       1  UNL111      0.0878
     40 H         115.7093  151.0065  144.5837 H       1  UNL111      0.0878
     41 H         120.6140  156.8742  148.7640 H       1  UNL111      0.0878
     42 H         115.6565  152.6025  148.5611 H       1  UNL111      0.0878
     43 H         120.1078  158.3757  146.8647 H       1  UNL111      0.0874
     44 H         114.5008  151.4555  146.6960 H       1  UNL111      0.0874
@<TRIPOS>UNITY_ATOM_ATTR
1 1
charge 1
@<TRIPOS>BOND
     1     1     5    1
     2     1    14    1
     3     1    15    1
     4     2     9    3
     5     3     4    1
     6     3     6    1
     7     3     7    1
     8     3     9    1
     9     4     5    1
    10     5     8    1
    11     6    10   ar
    12     6    12   ar
    13     7    11   ar
    14     7    13   ar
    15    10    16   ar
    16    11    17   ar
    17    12    18   ar
    18    13    19   ar
    19    16    20   ar
    20    17    21   ar
    21    18    20   ar
    22    19    21   ar
    23     1    22    1
    24     4    23    1
    25     4    24    1
    26     5    25    1
    27     8    26    1
    28     8    27    1
    29     8    28    1
    30    10    29    1
    31    11    30    1
    32    12    31    1
    33    13    32    1
    34    14    33    1
    35    14    34    1
    36    14    35    1
    37    15    36    1
    38    15    37    1
    39    15    38    1
    40    16    39    1
    41    17    40    1
    42    18    41    1
    43    19    42    1
    44    20    43    1
    45    21    44    1
@<TRIPOS>MOLECULE
22267
 51 52 0 0 0
SMALL
GASTEIGER

@<TRIPOS>ATOM
      1 O         120.8216  154.5620  144.7953 O.2     1  UNL111     -0.4161
      2 N         122.7216  154.0560  146.8225 N.4     1  UNL111      0.4245
      3 C         119.5892  153.3950  146.5318 C.3     1  UNL111      0.0774
      4 C         120.3089  154.1207  147.7452 C.3     1  UNL111     -0.0173
      5 C         121.6610  154.8696  147.5328 C.3     1  UNL111     -0.0375
      6 C         118.0949  153.0663  146.8066 C.3     1  UNL111     -0.0426
      7 C         120.3060  152.0347  146.2550 C.3     1  UNL111     -0.0426
      8 C         119.7288  154.4247  145.3655 C.2     1  UNL111      0.0993
      9 C         122.1900  155.4023  148.8694 C.3     1  UNL111     -0.0596
     10 C         118.5726  155.3729  145.0640 C.3     1  UNL111      0.0151
     11 C         117.3361  152.4184  145.8060 C.3     1  UNL111     -0.0747
     12 C         120.3957  151.0727  147.2853 C.3     1  UNL111     -0.0747
     13 C         117.4500  153.3486  148.0240 C.3     1  UNL111     -0.0747
     14 C         120.7991  151.6651  144.9894 C.3     1  UNL111     -0.0747
     15 C         123.3545  152.9437  147.6072 C.3     1  UNL111     -0.0460
     16 C         123.7706  154.9058  146.1469 C.3     1  UNL111     -0.0460
     17 C         118.9966  156.5376  144.1836 C.3     1  UNL111     -0.0497
     18 C         115.9920  152.0967  146.0044 C.3     1  UNL111     -0.0848
     19 C         121.0169  149.8382  147.0800 C.3     1  UNL111     -0.0848
     20 C         116.1027  153.0258  148.2190 C.3     1  UNL111     -0.0848
     21 C         121.4253  150.4311  144.7869 C.3     1  UNL111     -0.0848
     22 C         115.3742  152.4049  147.2101 C.3     1  UNL111     -0.0866
     23 C         121.5437  149.5234  145.8334 C.3     1  UNL111     -0.0866
     24 H         122.2443  153.6269  146.0131 H       1  UNL111      0.1299
     25 H         120.4121  153.4351  148.5953 H       1  UNL111      0.0588
     26 H         119.6325  154.9125  148.0993 H       1  UNL111      0.0588
     27 H         121.4685  155.7414  146.8959 H       1  UNL111      0.0784
     28 H         122.3765  154.5957  149.5858 H       1  UNL111      0.0402
     29 H         121.4568  156.0784  149.3231 H       1  UNL111      0.0402
     30 H         123.1169  155.9694  148.7422 H       1  UNL111      0.0402
     31 H         118.1902  155.7728  146.0085 H       1  UNL111      0.0645
     32 H         117.7792  154.8198  144.5551 H       1  UNL111      0.0645
     33 H         117.7848  152.1459  144.8515 H       1  UNL111      0.0905
     34 H         119.9506  151.2561  148.2626 H       1  UNL111      0.0905
     35 H         117.9624  153.8122  148.8615 H       1  UNL111      0.0905
     36 H         120.6915  152.3069  144.1169 H       1  UNL111      0.0905
     37 H         124.1049  153.3709  148.2782 H       1  UNL111      0.0663
     38 H         123.8232  152.2569  146.8975 H       1  UNL111      0.0663
     39 H         122.5883  152.4290  148.1858 H       1  UNL111      0.0663
     40 H         124.3801  155.3923  146.9118 H       1  UNL111      0.0663
     41 H         123.2678  155.6441  145.5172 H       1  UNL111      0.0663
     42 H         124.3848  154.2480  145.5256 H       1  UNL111      0.0663
     43 H         119.7979  157.1157  144.6559 H       1  UNL111      0.0306
     44 H         118.1500  157.2078  144.0052 H       1  UNL111      0.0306
     45 H         119.3630  156.1853  143.2137 H       1  UNL111      0.0306
     46 H         115.4286  151.5977  145.2188 H       1  UNL111      0.0877
     47 H         121.0619  149.1090  147.8866 H       1  UNL111      0.0877
     48 H         115.6195  153.2533  149.1672 H       1  UNL111      0.0877
     49 H         121.7949  150.1649  143.7981 H       1  UNL111      0.0877
     50 H         114.3283  152.1516  147.3677 H       1  UNL111      0.0874
     51 H         122.0091  148.5544  145.6657 H       1  UNL111      0.0874
@<TRIPOS>UNITY_ATOM_ATTR
2 1
charge 1
@<TRIPOS>BOND
     1     1     8    2
     2     2     5    1
     3     2    15    1
     4     2    16    1
     5     3     4    1
     6     3     6    1
     7     3     7    1
     8     3     8    1
     9     4     5    1
    10     5     9    1
    11     6    11   ar
    12     6    13   ar
    13     7    12   ar
    14     7    14   ar
    15     8    10    1
    16    10    17    1
    17    11    18   ar
    18    12    19   ar
    19    13    20   ar
    20    14    21   ar
    21    18    22   ar
    22    19    23   ar
    23    20    22   ar
    24    21    23   ar
    25     2    24    1
    26     4    25    1
    27     4    26    1
    28     5    27    1
    29     9    28    1
    30     9    29    1
    31     9    30    1
    32    10    31    1
    33    10    32    1
    34    11    33    1
    35    12    34    1
    36    13    35    1
    37    14    36    1
    38    15    37    1
    39    15    38    1
    40    15    39    1
    41    16    40    1
    42    16    41    1
    43    16    42    1
    44    17    43    1
    45    17    44    1
    46    17    45    1
    47    18    46    1
    48    19    47    1
    49    20    48    1
    50    21    49    1
    51    22    50    1
    52    23    51    1
@<TRIPOS>MOLECULE
44861
 44 45 0 0 0
SMALL
GASTEIGER

@<TRIPOS>ATOM
      1 N         116.3489  151.6247  146.1683 N.4     1  UNL111      0.4245
      2 N         119.8933  152.2732  149.4671 N.1     1  UNL111     -0.2852
      3 C         118.9059  151.9116  146.2396 C.3     1  UNL111     -0.0074
      4 C         120.0987  152.7897  146.8674 C.3     1  UNL111      0.1142
      5 C         117.5204  152.3990  146.7573 C.3     1  UNL111     -0.0329
      6 C         119.8209  154.2898  146.5461 C.ar    1  UNL111     -0.0311
      7 C         121.5129  152.4411  146.3271 C.ar    1  UNL111     -0.0311
      8 C         119.0707  150.3988  146.5089 C.3     1  UNL111     -0.0517
      9 C         120.0456  152.5079  148.3400 C.1     1  UNL111      0.0636
     10 C         119.6598  155.2629  147.5523 C.ar    1  UNL111     -0.0719
     11 C         122.6575  152.8122  147.0673 C.ar    1  UNL111     -0.0719
     12 C         119.7279  154.7206  145.2044 C.ar    1  UNL111     -0.0719
     13 C         121.7272  151.8277  145.0775 C.ar    1  UNL111     -0.0719
     14 C         116.1553  151.8459  144.6923 C.3     1  UNL111     -0.0463
     15 C         115.0748  151.9339  146.9217 C.3     1  UNL111     -0.0463
     16 C         119.3900  156.5961  147.2295 C.ar    1  UNL111     -0.0843
     17 C         123.9463  152.5404  146.6016 C.ar    1  UNL111     -0.0843
     18 C         119.4579  156.0538  144.8869 C.ar    1  UNL111     -0.0843
     19 C         123.0189  151.5588  144.6130 C.ar    1  UNL111     -0.0843
     20 C         119.2836  156.9896  145.8997 C.ar    1  UNL111     -0.0865
     21 C         124.1264  151.9094  145.3769 C.ar    1  UNL111     -0.0865
     22 H         116.5111  150.6201  146.3152 H       1  UNL111      0.1291
     23 H         118.9166  152.0460  145.1525 H       1  UNL111      0.0658
     24 H         117.4475  152.2669  147.8418 H       1  UNL111      0.0753
     25 H         117.3317  153.4505  146.5212 H       1  UNL111      0.0753
     26 H         118.7987  150.1393  147.5375 H       1  UNL111      0.0318
     27 H         120.0918  150.0498  146.3378 H       1  UNL111      0.0318
     28 H         118.4284  149.8159  145.8405 H       1  UNL111      0.0318
     29 H         119.7550  155.0247  148.6111 H       1  UNL111      0.0911
     30 H         122.5709  153.3294  148.0228 H       1  UNL111      0.0911
     31 H         119.8941  154.0323  144.3783 H       1  UNL111      0.0911
     32 H         120.9065  151.5459  144.4254 H       1  UNL111      0.0911
     33 H         116.0259  152.9164  144.5130 H       1  UNL111      0.0661
     34 H         115.2697  151.2872  144.3773 H       1  UNL111      0.0661
     35 H         117.0299  151.4593  144.1658 H       1  UNL111      0.0661
     36 H         114.8507  152.9975  146.8043 H       1  UNL111      0.0661
     37 H         115.2313  151.6765  147.9725 H       1  UNL111      0.0661
     38 H         114.2761  151.3143  146.5053 H       1  UNL111      0.0661
     39 H         119.2814  157.3356  148.0211 H       1  UNL111      0.0878
     40 H         124.8112  152.8293  147.1952 H       1  UNL111      0.0878
     41 H         119.4080  156.3696  143.8468 H       1  UNL111      0.0878
     42 H         123.1642  151.0791  143.6474 H       1  UNL111      0.0878
     43 H         119.0912  158.0319  145.6540 H       1  UNL111      0.0874
     44 H         125.1303  151.7013  145.0140 H       1  UNL111      0.0874
@<TRIPOS>UNITY_ATOM_ATTR
1 1
charge 1
@<TRIPOS>BOND
     1     1     5    1
     2     1    14    1
     3     1    15    1
     4     2     9    3
     5     3     4    1
     6     3     5    1
     7     3     8    1
     8     4     6    1
     9     4     7    1
    10     4     9    1
    11     6    10   ar
    12     6    12   ar
    13     7    11   ar
    14     7    13   ar
    15    10    16   ar
    16    11    17   ar
    17    12    18   ar
    18    13    19   ar
    19    16    20   ar
    20    17    21   ar
    21    18    20   ar
    22    19    21   ar
    23     1    22    1
    24     3    23    1
    25     5    24    1
    26     5    25    1
    27     8    26    1
    28     8    27    1
    29     8    28    1
    30    10    29    1
    31    11    30    1
    32    12    31    1
    33    13    32    1
    34    14    33    1
    35    14    34    1
    36    14    35    1
    37    15    36    1
    38    15    37    1
    39    15    38    1
    40    16    39    1
    41    17    40    1
    42    18    41    1
    43    19    42    1
    44    20    43    1
    45    21    44    1
@<TRIPOS>MOLECULE
407139
 52 53 0 0 0
SMALL
GASTEIGER

@<TRIPOS>ATOM
      1 N         123.4099  154.5779  145.6803 N.4     1  UNL111      0.4242
      2 N         120.3643  154.8511  148.5008 N.2     1  UNL111     -0.3696
      3 C         119.7337  153.3077  146.5609 C.3     1  UNL111      0.0423
      4 C         120.8967  154.0588  145.7320 C.3     1  UNL111     -0.0246
      5 C         122.3144  153.6815  146.2460 C.3     1  UNL111     -0.0362
      6 C         120.0751  151.7834  146.4736 C.ar    1  UNL111     -0.0511
      7 C         118.3093  153.6831  146.0442 C.ar    1  UNL111     -0.0511
      8 C         119.7199  153.8084  148.0706 C.2     1  UNL111     -0.0247
      9 C         120.8321  153.8415  144.2035 C.3     1  UNL111     -0.0550
     10 C         118.8610  153.0702  149.1011 C.3     1  UNL111     -0.0216
     11 C         119.7490  151.0314  145.3256 C.ar    1  UNL111     -0.0760
     12 C         117.2386  152.7662  146.0901 C.ar    1  UNL111     -0.0760
     13 C         120.8016  151.1223  147.4864 C.ar    1  UNL111     -0.0760
     14 C         118.0048  154.9952  145.6279 C.ar    1  UNL111     -0.0760
     15 C         124.7678  153.9417  145.8710 C.3     1  UNL111     -0.0464
     16 C         123.4046  155.9760  146.2376 C.3     1  UNL111     -0.0464
     17 C         117.7404  153.9525  149.6267 C.3     1  UNL111     -0.0578
     18 C         120.0982  149.6835  145.2107 C.ar    1  UNL111     -0.0849
     19 C         115.9522  153.1201  145.6730 C.ar    1  UNL111     -0.0849
     20 C         121.1492  149.7730  147.3705 C.ar    1  UNL111     -0.0849
     21 C         116.7171  155.3491  145.2116 C.ar    1  UNL111     -0.0849
     22 C         120.7958  149.0541  146.2344 C.ar    1  UNL111     -0.0866
     23 C         115.6937  154.4094  145.2256 C.ar    1  UNL111     -0.0866
     24 H         123.2808  154.6477  144.6631 H       1  UNL111      0.1290
     25 H         120.8160  155.4077  147.7855 H       1  UNL111      0.2279
     26 H         120.7616  155.1349  145.8692 H       1  UNL111      0.0607
     27 H         122.4082  153.7355  147.3341 H       1  UNL111      0.0747
     28 H         122.5737  152.6674  145.9241 H       1  UNL111      0.0747
     29 H         121.2539  152.8758  143.9090 H       1  UNL111      0.0311
     30 H         121.4081  154.6147  143.6835 H       1  UNL111      0.0311
     31 H         119.8144  153.9024  143.8107 H       1  UNL111      0.0311
     32 H         119.5101  152.7725  149.9326 H       1  UNL111      0.0519
     33 H         118.4348  152.1593  148.6752 H       1  UNL111      0.0519
     34 H         119.2001  151.4804  144.4980 H       1  UNL111      0.0904
     35 H         117.3744  151.7538  146.4673 H       1  UNL111      0.0904
     36 H         121.1154  151.6332  148.3947 H       1  UNL111      0.0904
     37 H         118.7498  155.7847  145.6323 H       1  UNL111      0.0904
     38 H         124.9527  153.8321  146.9429 H       1  UNL111      0.0661
     39 H         125.5150  154.5903  145.4062 H       1  UNL111      0.0661
     40 H         124.7611  152.9702  145.3697 H       1  UNL111      0.0661
     41 H         123.5045  155.9196  147.3247 H       1  UNL111      0.0661
     42 H         122.4697  156.4612  145.9519 H       1  UNL111      0.0661
     43 H         124.2429  156.5219  145.7962 H       1  UNL111      0.0661
     44 H         118.1375  154.8366  150.1361 H       1  UNL111      0.0290
     45 H         117.1259  153.3980  150.3427 H       1  UNL111      0.0290
     46 H         117.0924  154.3004  148.8169 H       1  UNL111      0.0290
     47 H         119.8153  149.1220  144.3225 H       1  UNL111      0.0877
     48 H         115.1478  152.3887  145.7122 H       1  UNL111      0.0877
     49 H         121.6900  149.2774  148.1745 H       1  UNL111      0.0877
     50 H         116.5078  156.3669  144.8895 H       1  UNL111      0.0877
     51 H         121.0564  148.0014  146.1499 H       1  UNL111      0.0874
     52 H         114.6911  154.6865  144.9086 H       1  UNL111      0.0874
@<TRIPOS>UNITY_ATOM_ATTR
1 1
charge 1
@<TRIPOS>BOND
     1     1     5    1
     2     1    15    1
     3     1    16    1
     4     2     8    2
     5     3     4    1
     6     3     6    1
     7     3     7    1
     8     3     8    1
     9     4     5    1
    10     4     9    1
    11     6    11   ar
    12     6    13   ar
    13     7    12   ar
    14     7    14   ar
    15     8    10    1
    16    10    17    1
    17    11    18   ar
    18    12    19   ar
    19    13    20   ar
    20    14    21   ar
    21    18    22   ar
    22    19    23   ar
    23    20    22   ar
    24    21    23   ar
    25     1    24    1
    26     2    25    1
    27     4    26    1
    28     5    27    1
    29     5    28    1
    30     9    29    1
    31     9    30    1
    32     9    31    1
    33    10    32    1
    34    10    33    1
    35    11    34    1
    36    12    35    1
    37    13    36    1
    38    14    37    1
    39    15    38    1
    40    15    39    1
    41    15    40    1
    42    16    41    1
    43    16    42    1
    44    16    43    1
    45    17    44    1
    46    17    45    1
    47    17    46    1
    48    18    47    1
    49    19    48    1
    50    20    49    1
    51    21    50    1
    52    22    51    1
    53    23    52    1
@<TRIPOS>MOLECULE
28397
 53 54 0 0 0
SMALL
GASTEIGER

@<TRIPOS>ATOM
      1 O         121.0954  153.1089  148.9733 O.3     1  UNL111     -0.4499
      2 N         116.7103  150.9961  145.7330 N.4     1  UNL111      0.4243
      3 C         120.0310  153.0618  146.6547 C.3     1  UNL111      0.0275
      4 C         118.9207  152.2557  145.8439 C.3     1  UNL111     -0.0293
      5 C         120.1617  152.4389  148.1215 C.3     1  UNL111      0.0219
      6 C         117.4954  152.1316  146.4429 C.3     1  UNL111     -0.0397
      7 C         119.5677  154.5521  146.6504 C.ar    1  UNL111     -0.0562
      8 C         121.4304  152.9497  145.9460 C.ar    1  UNL111     -0.0562
      9 C         120.5162  150.9382  148.1733 C.3     1  UNL111     -0.0359
     10 C         116.6270  153.3880  146.3639 C.3     1  UNL111     -0.0599
     11 C         119.4981  155.2539  145.4243 C.ar    1  UNL111     -0.0773
     12 C         122.4162  153.9439  146.1450 C.ar    1  UNL111     -0.0773
     13 C         119.2202  155.2590  147.8158 C.ar    1  UNL111     -0.0773
     14 C         121.7831  151.8746  145.1076 C.ar    1  UNL111     -0.0773
     15 C         120.4682  150.3786  149.5929 C.3     1  UNL111     -0.0617
     16 C         117.1221  149.6104  146.1632 C.3     1  UNL111     -0.0460
     17 C         116.6200  151.1058  144.2325 C.3     1  UNL111     -0.0460
     18 C         119.0903  156.5881  145.3681 C.ar    1  UNL111     -0.0851
     19 C         123.6742  153.8670  145.5396 C.ar    1  UNL111     -0.0851
     20 C         118.8097  156.5953  147.7559 C.ar    1  UNL111     -0.0851
     21 C         123.0420  151.8008  144.4981 C.ar    1  UNL111     -0.0851
     22 C         118.7423  157.2575  146.5345 C.ar    1  UNL111     -0.0867
     23 C         123.9871  152.7965  144.7151 C.ar    1  UNL111     -0.0867
     24 H         121.4845  153.8709  148.5150 H       1  UNL111      0.2365
     25 H         115.7413  151.0855  146.0692 H       1  UNL111      0.1299
     26 H         119.2793  151.2351  145.7014 H       1  UNL111      0.0556
     27 H         118.8432  152.6661  144.8283 H       1  UNL111      0.0556
     28 H         119.1960  152.5554  148.6255 H       1  UNL111      0.0998
     29 H         117.5349  151.8112  147.4878 H       1  UNL111      0.0780
     30 H         121.5294  150.7745  147.7906 H       1  UNL111      0.0443
     31 H         119.8275  150.3493  147.5629 H       1  UNL111      0.0443
     32 H         116.7109  153.8833  145.3920 H       1  UNL111      0.0401
     33 H         116.9009  154.1036  147.1401 H       1  UNL111      0.0401
     34 H         115.5688  153.1583  146.5329 H       1  UNL111      0.0401
     35 H         119.7956  154.7759  144.4915 H       1  UNL111      0.0901
     36 H         122.2238  154.8177  146.7646 H       1  UNL111      0.0901
     37 H         119.2547  154.8047  148.8034 H       1  UNL111      0.0901
     38 H         121.1115  151.0485  144.9034 H       1  UNL111      0.0901
     39 H         121.2134  150.8547  150.2374 H       1  UNL111      0.0276
     40 H         120.6765  149.3040  149.5798 H       1  UNL111      0.0276
     41 H         119.4794  150.5264  150.0386 H       1  UNL111      0.0276
     42 H         118.1099  149.3866  145.7553 H       1  UNL111      0.0663
     43 H         116.3802  148.9065  145.7761 H       1  UNL111      0.0663
     44 H         117.1274  149.5776  147.2555 H       1  UNL111      0.0663
     45 H         117.6060  150.9158  143.8023 H       1  UNL111      0.0663
     46 H         116.2591  152.1031  143.9741 H       1  UNL111      0.0663
     47 H         115.9027  150.3564  143.8867 H       1  UNL111      0.0663
     48 H         119.0628  157.1106  144.4142 H       1  UNL111      0.0876
     49 H         124.4093  154.6504  145.7143 H       1  UNL111      0.0876
     50 H         118.5504  157.1250  148.6706 H       1  UNL111      0.0876
     51 H         123.2895  150.9586  143.8564 H       1  UNL111      0.0876
     52 H         118.4346  158.2999  146.4951 H       1  UNL111      0.0874
     53 H         124.9656  152.7357  144.2449 H       1  UNL111      0.0874
@<TRIPOS>UNITY_ATOM_ATTR
2 1
charge 1
@<TRIPOS>BOND
     1     1     5    1
     2     2     6    1
     3     2    16    1
     4     2    17    1
     5     3     4    1
     6     3     5    1
     7     3     7    1
     8     3     8    1
     9     4     6    1
    10     5     9    1
    11     6    10    1
    12     7    11   ar
    13     7    13   ar
    14     8    12   ar
    15     8    14   ar
    16     9    15    1
    17    11    18   ar
    18    12    19   ar
    19    13    20   ar
    20    14    21   ar
    21    18    22   ar
    22    19    23   ar
    23    20    22   ar
    24    21    23   ar
    25     1    24    1
    26     2    25    1
    27     4    26    1
    28     4    27    1
    29     5    28    1
    30     6    29    1
    31     9    30    1
    32     9    31    1
    33    10    32    1
    34    10    33    1
    35    10    34    1
    36    11    35    1
    37    12    36    1
    38    13    37    1
    39    14    38    1
    40    15    39    1
    41    15    40    1
    42    15    41    1
    43    16    42    1
    44    16    43    1
    45    16    44    1
    46    17    45    1
    47    17    46    1
    48    17    47    1
    49    18    48    1
    50    19    49    1
    51    20    50    1
    52    21    51    1
    53    22    52    1
    54    23    53    1
@<TRIPOS>MOLECULE
610077
 51 52 0 0 0
SMALL
GASTEIGER

@<TRIPOS>ATOM
      1 O         116.2886  151.3055  145.3542 O.co2   1  UNL1111    -0.7589
      2 O         120.6354  152.5627  149.0917 O.2     1  UNL1111    -0.4161
      3 N         116.3820  152.6751  145.4017 N.3     1  UNL1111     0.3990
      4 C         120.2142  152.8638  146.6698 C.3     1  UNL1111     0.0772
      5 C         117.5350  153.1014  146.3633 C.3     1  UNL1111    -0.0561
      6 C         118.8989  152.5092  145.8858 C.3     1  UNL1111    -0.0200
      7 C         121.5056  152.4114  145.9042 C.3     1  UNL1111    -0.0426
      8 C         120.2223  154.4245  146.7901 C.3     1  UNL1111    -0.0426
      9 C         120.2869  152.0539  148.0216 C.2     1  UNL1111     0.0993
     10 C         117.1958  152.7362  147.8139 C.3     1  UNL1111    -0.0623
     11 C         116.6259  153.1923  144.0025 C.3     1  UNL1111    -0.0645
     12 C         115.0573  153.2391  145.8612 C.3     1  UNL1111    -0.0645
     13 C         120.0017  150.5496  147.9603 C.3     1  UNL1111     0.0151
     14 C         122.7668  152.7839  146.4187 C.3     1  UNL1111    -0.0747
     15 C         120.4796  155.2023  145.6363 C.3     1  UNL1111    -0.0747
     16 C         121.4828  151.6166  144.7444 C.3     1  UNL1111    -0.0747
     17 C         119.9210  155.1217  147.9714 C.3     1  UNL1111    -0.0747
     18 C         120.3330  149.8397  149.2633 C.3     1  UNL1111    -0.0497
     19 C         123.9503  152.3950  145.7894 C.3     1  UNL1111    -0.0848
     20 C         120.4587  156.5988  145.6714 C.3     1  UNL1111    -0.0848
     21 C         122.6708  151.2291  144.1165 C.3     1  UNL1111    -0.0848
     22 C         119.9012  156.5208  148.0067 C.3     1  UNL1111    -0.0848
     23 C         123.9017  151.6192  144.6364 C.3     1  UNL1111    -0.0866
     24 C         120.1706  157.2587  146.8593 C.3     1  UNL1111    -0.0866
     25 H         117.5528  154.1938  146.2726 H       1  UNL1111     0.0751
     26 H         118.7929  151.4221  145.7962 H       1  UNL1111     0.0586
     27 H         119.0449  152.8611  144.8580 H       1  UNL1111     0.0586
     28 H         116.9929  151.6668  147.9227 H       1  UNL1111     0.0400
     29 H         116.3104  153.2761  148.1633 H       1  UNL1111     0.0400
     30 H         117.9866  153.0119  148.5099 H       1  UNL1111     0.0400
     31 H         117.4594  152.6391  143.5663 H       1  UNL1111     0.0630
     32 H         116.8275  154.2640  144.0652 H       1  UNL1111     0.0630
     33 H         115.7280  152.9932  143.4101 H       1  UNL1111     0.0630
     34 H         114.7665  152.7316  146.7832 H       1  UNL1111     0.0630
     35 H         114.3130  153.0192  145.0903 H       1  UNL1111     0.0630
     36 H         115.1770  154.3161  146.0000 H       1  UNL1111     0.0630
     37 H         120.5974  150.1027  147.1598 H       1  UNL1111     0.0645
     38 H         118.9436  150.3926  147.7400 H       1  UNL1111     0.0645
     39 H         122.8346  153.3879  147.3242 H       1  UNL1111     0.0905
     40 H         120.7144  154.7217  144.6873 H       1  UNL1111     0.0905
     41 H         120.5517  151.2695  144.3041 H       1  UNL1111     0.0905
     42 H         119.6955  154.6063  148.9009 H       1  UNL1111     0.0905
     43 H         121.3888  149.9680  149.5237 H       1  UNL1111     0.0306
     44 H         120.1301  148.7679  149.1744 H       1  UNL1111     0.0306
     45 H         119.7314  150.2329  150.0894 H       1  UNL1111     0.0306
     46 H         124.9085  152.6976  146.2040 H       1  UNL1111     0.0877
     47 H         120.6763  157.1679  144.7712 H       1  UNL1111     0.0877
     48 H         122.6333  150.6146  143.2200 H       1  UNL1111     0.0877
     49 H         119.6794  157.0319  148.9408 H       1  UNL1111     0.0877
     50 H         124.8224  151.3139  144.1464 H       1  UNL1111     0.0874
     51 H         120.1619  158.3447  146.8942 H       1  UNL1111     0.0874
@<TRIPOS>UNITY_ATOM_ATTR
1 1
charge -1
3 1
charge 1
@<TRIPOS>BOND
     1     1     3    1
     2     2     9    2
     3     3     5    1
     4     3    11    1
     5     3    12    1
     6     4     6    1
     7     4     7    1
     8     4     8    1
     9     4     9    1
    10     5     6    1
    11     5    10    1
    12     7    14   ar
    13     7    16   ar
    14     8    15   ar
    15     8    17   ar
    16     9    13    1
    17    13    18    1
    18    14    19   ar
    19    15    20   ar
    20    16    21   ar
    21    17    22   ar
    22    19    23   ar
    23    20    24   ar
    24    21    23   ar
    25    22    24   ar
    26     5    25    1
    27     6    26    1
    28     6    27    1
    29    10    28    1
    30    10    29    1
    31    10    30    1
    32    11    31    1
    33    11    32    1
    34    11    33    1
    35    12    34    1
    36    12    35    1
    37    12    36    1
    38    13    37    1
    39    13    38    1
    40    14    39    1
    41    15    40    1
    42    16    41    1
    43    17    42    1
    44    18    43    1
    45    18    44    1
    46    18    45    1
    47    19    46    1
    48    20    47    1
    49    21    48    1
    50    22    49    1
    51    23    50    1
    52    24    51    1
@<TRIPOS>MOLECULE
21435
 52 53 0 0 0
SMALL
GASTEIGER

@<TRIPOS>ATOM
      1 N         123.1888  154.9173  145.8008 N.4     1  UNL111      0.4244
      2 N         119.8836  154.2052  149.1460 N.2     1  UNL111     -0.3698
      3 C         119.6643  153.2332  146.8074 C.3     1  UNL111      0.0413
      4 C         120.7954  154.2402  146.3227 C.3     1  UNL111     -0.0254
      5 C         122.2919  153.8303  146.4777 C.3     1  UNL111     -0.0388
      6 C         120.1445  151.8424  146.2919 C.ar    1  UNL111     -0.0517
      7 C         118.2953  153.6726  146.1862 C.ar    1  UNL111     -0.0517
      8 C         119.4127  153.2864  148.3602 C.2     1  UNL111     -0.0253
      9 C         122.7272  153.6832  147.9368 C.3     1  UNL111     -0.0597
     10 C         118.4920  152.2511  149.0107 C.3     1  UNL111     -0.0217
     11 C         120.1313  151.5609  144.9060 C.ar    1  UNL111     -0.0762
     12 C         117.3214  152.7270  145.8032 C.ar    1  UNL111     -0.0762
     13 C         120.7004  150.8677  147.1407 C.ar    1  UNL111     -0.0762
     14 C         117.9431  155.0335  146.0828 C.ar    1  UNL111     -0.0762
     15 C         122.9267  155.0668  144.3161 C.3     1  UNL111     -0.0460
     16 C         124.6731  154.6919  146.0115 C.3     1  UNL111     -0.0460
     17 C         117.2357  152.8951  149.5743 C.3     1  UNL111     -0.0579
     18 C         120.6142  150.3513  144.4027 C.ar    1  UNL111     -0.0849
     19 C         116.0856  153.1220  145.2839 C.ar    1  UNL111     -0.0849
     20 C         121.1851  149.6580  146.6339 C.ar    1  UNL111     -0.0849
     21 C         116.7054  155.4270  145.5643 C.ar    1  UNL111     -0.0849
     22 C         121.1395  149.3992  145.2680 C.ar    1  UNL111     -0.0866
     23 C         115.7810  154.4718  145.1572 C.ar    1  UNL111     -0.0866
     24 H         122.9702  155.8224  146.2376 H       1  UNL111      0.1299
     25 H         120.4040  154.9470  148.6902 H       1  UNL111      0.2279
     26 H         120.6668  155.2301  146.7749 H       1  UNL111      0.0571
     27 H         120.6115  154.3955  145.2526 H       1  UNL111      0.0571
     28 H         122.5179  152.9107  145.9297 H       1  UNL111      0.0783
     29 H         122.6998  154.6433  148.4624 H       1  UNL111      0.0402
     30 H         123.7425  153.2814  148.0138 H       1  UNL111      0.0402
     31 H         122.1024  152.9746  148.4809 H       1  UNL111      0.0402
     32 H         119.0475  151.7659  149.8214 H       1  UNL111      0.0519
     33 H         118.2095  151.4755  148.2955 H       1  UNL111      0.0519
     34 H         119.7207  152.2781  144.1954 H       1  UNL111      0.0904
     35 H         117.4971  151.6576  145.9116 H       1  UNL111      0.0904
     36 H         120.7742  151.0148  148.2160 H       1  UNL111      0.0904
     37 H         118.6043  155.8226  146.4282 H       1  UNL111      0.0904
     38 H         122.9814  154.0791  143.8518 H       1  UNL111      0.0663
     39 H         123.6811  155.7374  143.8948 H       1  UNL111      0.0663
     40 H         121.9478  155.5283  144.1780 H       1  UNL111      0.0663
     41 H         124.9185  153.6756  145.6935 H       1  UNL111      0.0663
     42 H         124.9036  154.8576  147.0658 H       1  UNL111      0.0663
     43 H         125.2236  155.4301  145.4213 H       1  UNL111      0.0663
     44 H         117.4788  153.6200  150.3580 H       1  UNL111      0.0290
     45 H         116.5828  152.1328  150.0107 H       1  UNL111      0.0290
     46 H         116.6743  153.4228  148.7977 H       1  UNL111      0.0290
     47 H         120.5668  150.1454  143.3354 H       1  UNL111      0.0877
     48 H         115.3541  152.3716  144.9917 H       1  UNL111      0.0877
     49 H         121.5922  148.9090  147.3110 H       1  UNL111      0.0877
     50 H         116.4527  156.4829  145.4957 H       1  UNL111      0.0877
     51 H         121.5040  148.4503  144.8803 H       1  UNL111      0.0874
     52 H         114.8149  154.7782  144.7631 H       1  UNL111      0.0874
@<TRIPOS>UNITY_ATOM_ATTR
1 1
charge 1
@<TRIPOS>BOND
     1     1     5    1
     2     1    15    1
     3     1    16    1
     4     2     8    2
     5     3     4    1
     6     3     6    1
     7     3     7    1
     8     3     8    1
     9     4     5    1
    10     5     9    1
    11     6    11   ar
    12     6    13   ar
    13     7    12   ar
    14     7    14   ar
    15     8    10    1
    16    10    17    1
    17    11    18   ar
    18    12    19   ar
    19    13    20   ar
    20    14    21   ar
    21    18    22   ar
    22    19    23   ar
    23    20    22   ar
    24    21    23   ar
    25     1    24    1
    26     2    25    1
    27     4    26    1
    28     4    27    1
    29     5    28    1
    30     9    29    1
    31     9    30    1
    32     9    31    1
    33    10    32    1
    34    10    33    1
    35    11    34    1
    36    12    35    1
    37    13    36    1
    38    14    37    1
    39    15    38    1
    40    15    39    1
    41    15    40    1
    42    16    41    1
    43    16    42    1
    44    16    43    1
    45    17    44    1
    46    17    45    1
    47    17    46    1
    48    18    47    1
    49    19    48    1
    50    20    49    1
    51    21    50    1
    52    22    51    1
    53    23    52    1
@<TRIPOS>MOLECULE
11832763
 44 45 0 0 0
SMALL
GASTEIGER

@<TRIPOS>ATOM
      1 N         122.8617  151.7102  146.1619 N.4     1  UNL111      0.4247
      2 N         120.8485  152.0305  143.9923 N.1     1  UNL111     -0.2854
      3 C         119.6891  152.8652  146.2143 C.3     1  UNL111      0.1131
      4 C         120.5283  152.0392  147.2717 C.3     1  UNL111     -0.0081
      5 C         122.0682  152.2732  147.3459 C.3     1  UNL111     -0.0355
      6 C         119.8702  154.3986  146.3418 C.ar    1  UNL111     -0.0316
      7 C         118.1938  152.4857  146.3835 C.ar    1  UNL111     -0.0316
      8 C         122.6076  151.6883  148.6589 C.3     1  UNL111     -0.0593
      9 C         120.2359  152.4127  144.9032 C.1     1  UNL111      0.0629
     10 C         119.7116  155.2296  145.2111 C.ar    1  UNL111     -0.0720
     11 C         117.4532  151.8467  145.3689 C.ar    1  UNL111     -0.0720
     12 C         120.1459  155.0304  147.5706 C.ar    1  UNL111     -0.0720
     13 C         117.5172  152.7764  147.5881 C.ar    1  UNL111     -0.0720
     14 C         122.8764  150.2108  146.0048 C.3     1  UNL111     -0.0459
     15 C         124.2645  152.2708  146.0749 C.3     1  UNL111     -0.0459
     16 C         119.8865  156.6129  145.2938 C.ar    1  UNL111     -0.0843
     17 C         116.1095  151.5054  145.5580 C.ar    1  UNL111     -0.0843
     18 C         120.3143  156.4163  147.6512 C.ar    1  UNL111     -0.0843
     19 C         116.1747  152.4354  147.7728 C.ar    1  UNL111     -0.0843
     20 C         120.1958  157.2048  146.5121 C.ar    1  UNL111     -0.0865
     21 C         115.4721  151.7972  146.7586 C.ar    1  UNL111     -0.0865
     22 H         122.4346  152.0457  145.2827 H       1  UNL111      0.1300
     23 H         120.3352  150.9668  147.1260 H       1  UNL111      0.0622
     24 H         120.1263  152.2480  148.2725 H       1  UNL111      0.0622
     25 H         122.2726  153.3478  147.3456 H       1  UNL111      0.0789
     26 H         122.4100  150.6141  148.7362 H       1  UNL111      0.0402
     27 H         122.1226  152.1697  149.5156 H       1  UNL111      0.0402
     28 H         123.6831  151.8502  148.7715 H       1  UNL111      0.0402
     29 H         119.4374  154.8218  144.2380 H       1  UNL111      0.0911
     30 H         117.8862  151.5976  144.4019 H       1  UNL111      0.0911
     31 H         120.2153  154.4729  148.5010 H       1  UNL111      0.0911
     32 H         118.0152  153.2873  148.4087 H       1  UNL111      0.0911
     33 H         123.4441  149.7717  146.8278 H       1  UNL111      0.0663
     34 H         123.3540  149.9816  145.0478 H       1  UNL111      0.0663
     35 H         121.8478  149.8476  145.9924 H       1  UNL111      0.0663
     36 H         124.8707  151.8403  146.8750 H       1  UNL111      0.0663
     37 H         124.2059  153.3587  146.1630 H       1  UNL111      0.0663
     38 H         124.6728  152.0016  145.0969 H       1  UNL111      0.0663
     39 H         119.7648  157.2309  144.4061 H       1  UNL111      0.0878
     40 H         115.5552  151.0145  144.7604 H       1  UNL111      0.0878
     41 H         120.5209  156.8880  148.6100 H       1  UNL111      0.0878
     42 H         115.6737  152.6765  148.7081 H       1  UNL111      0.0878
     43 H         120.3187  158.2837  146.5772 H       1  UNL111      0.0874
     44 H         114.4257  151.5361  146.8996 H       1  UNL111      0.0874
@<TRIPOS>UNITY_ATOM_ATTR
1 1
charge 1
@<TRIPOS>BOND
     1     1     5    1
     2     1    14    1
     3     1    15    1
     4     2     9    3
     5     3     4    1
     6     3     6    1
     7     3     7    1
     8     3     9    1
     9     4     5    1
    10     5     8    1
    11     6    10   ar
    12     6    12   ar
    13     7    11   ar
    14     7    13   ar
    15    10    16   ar
    16    11    17   ar
    17    12    18   ar
    18    13    19   ar
    19    16    20   ar
    20    17    21   ar
    21    18    20   ar
    22    19    21   ar
    23     1    22    1
    24     4    23    1
    25     4    24    1
    26     5    25    1
    27     8    26    1
    28     8    27    1
    29     8    28    1
    30    10    29    1
    31    11    30    1
    32    12    31    1
    33    13    32    1
    34    14    33    1
    35    14    34    1
    36    14    35    1
    37    15    36    1
    38    15    37    1
    39    15    38    1
    40    16    39    1
    41    17    40    1
    42    18    41    1
    43    19    42    1
    44    20    43    1
    45    21    44    1
@<TRIPOS>MOLECULE
10072
 51 52 0 0 0
SMALL
GASTEIGER

@<TRIPOS>ATOM
      1 O         121.4173  154.3298  148.6550 O.2     1  UNL111     -0.4159
      2 N         117.9609  149.9091  146.3105 N.4     1  UNL111      0.4243
      3 C         119.9737  153.2992  146.9146 C.3     1  UNL111      0.0785
      4 C         119.1175  151.9933  147.2764 C.3     1  UNL111     -0.0165
      5 C         118.9208  151.0636  146.0482 C.3     1  UNL111     -0.0349
      6 C         119.2086  154.3363  146.0281 C.3     1  UNL111     -0.0420
      7 C         121.2774  152.8011  146.1933 C.3     1  UNL111     -0.0420
      8 C         120.2741  154.1006  148.2561 C.2     1  UNL111      0.0998
      9 C         119.6987  151.1736  148.4504 C.3     1  UNL111     -0.0538
     10 C         119.0710  154.6132  149.0564 C.3     1  UNL111      0.0152
     11 C         119.9020  155.4936  145.6019 C.3     1  UNL111     -0.0746
     12 C         121.3648  152.7597  144.7822 C.3     1  UNL111     -0.0746
     13 C         117.8496  154.2368  145.6829 C.3     1  UNL111     -0.0746
     14 C         122.3741  152.2868  146.9105 C.3     1  UNL111     -0.0746
     15 C         118.0492  148.8868  145.1997 C.3     1  UNL111     -0.0464
     16 C         116.5342  150.3268  146.5309 C.3     1  UNL111     -0.0464
     17 C         119.4842  155.3003  150.3485 C.3     1  UNL111     -0.0497
     18 C         119.2785  156.4771  144.8332 C.3     1  UNL111     -0.0848
     19 C         122.4951  152.2555  144.1317 C.3     1  UNL111     -0.0848
     20 C         117.2270  155.2256  144.9125 C.3     1  UNL111     -0.0848
     21 C         123.5041  151.7821  146.2590 C.3     1  UNL111     -0.0848
     22 C         117.9411  156.3399  144.4842 C.3     1  UNL111     -0.0866
     23 C         123.5648  151.7667  144.8708 C.3     1  UNL111     -0.0866
     24 H         118.2751  149.4155  147.1556 H       1  UNL111      0.1290
     25 H         118.1369  152.3322  147.6251 H       1  UNL111      0.0625
     26 H         118.5326  151.5924  145.1730 H       1  UNL111      0.0749
     27 H         119.8685  150.5868  145.7777 H       1  UNL111      0.0749
     28 H         120.5582  150.5709  148.1428 H       1  UNL111      0.0313
     29 H         118.9453  150.4842  148.8464 H       1  UNL111      0.0313
     30 H         120.0044  151.8008  149.2914 H       1  UNL111      0.0313
     31 H         118.4187  153.7725  149.3053 H       1  UNL111      0.0646
     32 H         118.5095  155.3265  148.4473 H       1  UNL111      0.0646
     33 H         120.9511  155.6411  145.8670 H       1  UNL111      0.0906
     34 H         120.5598  153.1332  144.1513 H       1  UNL111      0.0906
     35 H         117.2220  153.4171  146.0098 H       1  UNL111      0.0906
     36 H         122.3893  152.2806  147.9993 H       1  UNL111      0.0906
     37 H         117.7326  149.3600  144.2664 H       1  UNL111      0.0661
     38 H         117.3967  148.0484  145.4577 H       1  UNL111      0.0661
     39 H         119.0846  148.5417  145.1366 H       1  UNL111      0.0661
     40 H         116.1987  150.8973  145.6610 H       1  UNL111      0.0661
     41 H         116.4835  150.9268  147.4412 H       1  UNL111      0.0661
     42 H         115.9304  149.4246  146.6620 H       1  UNL111      0.0661
     43 H         120.0452  154.6174  150.9951 H       1  UNL111      0.0306
     44 H         118.6010  155.6423  150.8968 H       1  UNL111      0.0306
     45 H         120.1180  156.1700  150.1461 H       1  UNL111      0.0306
     46 H         119.8386  157.3537  144.5140 H       1  UNL111      0.0877
     47 H         122.5467  152.2602  143.0450 H       1  UNL111      0.0877
     48 H         116.1736  155.1376  144.6540 H       1  UNL111      0.0877
     49 H         124.3466  151.4160  146.8424 H       1  UNL111      0.0877
     50 H         117.4530  157.1097  143.8905 H       1  UNL111      0.0874
     51 H         124.4522  151.3899  144.3678 H       1  UNL111      0.0874
@<TRIPOS>UNITY_ATOM_ATTR
2 1
charge 1
@<TRIPOS>BOND
     1     1     8    2
     2     2     5    1
     3     2    15    1
     4     2    16    1
     5     3     4    1
     6     3     6    1
     7     3     7    1
     8     3     8    1
     9     4     5    1
    10     4     9    1
    11     6    11   ar
    12     6    13   ar
    13     7    12   ar
    14     7    14   ar
    15     8    10    1
    16    10    17    1
    17    11    18   ar
    18    12    19   ar
    19    13    20   ar
    20    14    21   ar
    21    18    22   ar
    22    19    23   ar
    23    20    22   ar
    24    21    23   ar
    25     2    24    1
    26     4    25    1
    27     5    26    1
    28     5    27    1
    29     9    28    1
    30     9    29    1
    31     9    30    1
    32    10    31    1
    33    10    32    1
    34    11    33    1
    35    12    34    1
    36    13    35    1
    37    14    36    1
    38    15    37    1
    39    15    38    1
    40    15    39    1
    41    16    40    1
    42    16    41    1
    43    16    42    1
    44    17    43    1
    45    17    44    1
    46    17    45    1
    47    18    46    1
    48    19    47    1
    49    20    48    1
    50    21    49    1
    51    22    50    1
    52    23    51    1
@<TRIPOS>MOLECULE
5352621
 44 46 0 0 0
SMALL
GASTEIGER

@<TRIPOS>ATOM
      1 N         118.8117  155.5245  146.4285 N.pl3   1  UNL1111    -0.4238
      2 C         119.8598  153.3560  146.7159 C.3     1  UNL1111     0.0397
      3 C         119.4579  154.0140  148.0912 C.3     1  UNL1111    -0.0145
      4 C         118.4411  155.1193  147.7779 C.3     1  UNL1111    -0.0063
      5 C         119.6030  154.5850  145.7624 C.2     1  UNL1111    -0.0313
      6 C         118.8932  152.1611  146.4584 C.ar    1  UNL1111    -0.0530
      7 C         121.3669  152.9615  146.7567 C.ar    1  UNL1111    -0.0530
      8 C         116.9899  154.6588  147.8446 C.3     1  UNL1111    -0.0487
      9 C         118.3398  156.7951  145.9142 C.3     1  UNL1111    -0.0174
     10 C         120.0903  154.7680  144.5178 C.2     1  UNL1111    -0.0862
     11 C         118.7592  151.1335  147.4192 C.ar    1  UNL1111    -0.0764
     12 C         121.8283  151.6644  146.4628 C.ar    1  UNL1111    -0.0764
     13 C         118.1325  152.0385  145.2819 C.ar    1  UNL1111    -0.0764
     14 C         122.3471  153.9344  147.0531 C.ar    1  UNL1111    -0.0764
     15 C         120.9116  153.8270  143.6974 C.3     1  UNL1111    -0.0469
     16 C         117.9032  150.0479  147.2164 C.ar    1  UNL1111    -0.0850
     17 C         123.1908  151.3476  146.5005 C.ar    1  UNL1111    -0.0850
     18 C         117.2744  150.9525  145.0792 C.ar    1  UNL1111    -0.0850
     19 C         123.7082  153.6193  147.0902 C.ar    1  UNL1111    -0.0850
     20 C         117.1590  149.9588  146.0457 C.ar    1  UNL1111    -0.0866
     21 C         124.1294  152.3228  146.8196 C.ar    1  UNL1111    -0.0866
     22 H         120.3189  154.4964  148.5709 H       1  UNL1111     0.0517
     23 H         119.0737  153.3167  148.8423 H       1  UNL1111     0.0517
     24 H         118.5829  155.9468  148.4842 H       1  UNL1111     0.0767
     25 H         116.7536  153.9005  147.0939 H       1  UNL1111     0.0348
     26 H         116.3119  155.5011  147.6684 H       1  UNL1111     0.0348
     27 H         116.7594  154.2469  148.8324 H       1  UNL1111     0.0348
     28 H         117.7550  157.3415  146.6619 H       1  UNL1111     0.0648
     29 H         117.7005  156.6405  145.0389 H       1  UNL1111     0.0648
     30 H         119.1835  157.4319  145.6290 H       1  UNL1111     0.0648
     31 H         119.8586  155.6969  144.0038 H       1  UNL1111     0.0835
     32 H         119.3451  151.1599  148.3365 H       1  UNL1111     0.0903
     33 H         121.1407  150.8727  146.1761 H       1  UNL1111     0.0903
     34 H         118.1789  152.7941  144.5027 H       1  UNL1111     0.0903
     35 H         122.0549  154.9668  147.2401 H       1  UNL1111     0.0903
     36 H         120.8544  152.7928  144.0391 H       1  UNL1111     0.0370
     37 H         121.9576  154.1470  143.6876 H       1  UNL1111     0.0370
     38 H         120.5463  153.8358  142.6648 H       1  UNL1111     0.0370
     39 H         117.8238  149.2712  147.9723 H       1  UNL1111     0.0877
     40 H         123.5153  150.3362  146.2696 H       1  UNL1111     0.0877
     41 H         116.6941  150.8890  144.1623 H       1  UNL1111     0.0877
     42 H         124.4362  154.3920  147.3217 H       1  UNL1111     0.0877
     43 H         116.4919  149.1166  145.8848 H       1  UNL1111     0.0874
     44 H         125.1869  152.0756  146.8440 H       1  UNL1111     0.0874
@<TRIPOS>BOND
     1     1     4    1
     2     1     5    1
     3     1     9    1
     4     2     3    1
     5     2     5    1
     6     2     6    1
     7     2     7    1
     8     3     4    1
     9     4     8    1
    10     5    10    2
    11     6    11   ar
    12     6    13   ar
    13     7    12   ar
    14     7    14   ar
    15    10    15    1
    16    11    16   ar
    17    12    17   ar
    18    13    18   ar
    19    14    19   ar
    20    16    20   ar
    21    17    21   ar
    22    18    20   ar
    23    19    21   ar
    24     3    22    1
    25     3    23    1
    26     4    24    1
    27     8    25    1
    28     8    26    1
    29     8    27    1
    30     9    28    1
    31     9    29    1
    32     9    30    1
    33    10    31    1
    34    11    32    1
    35    12    33    1
    36    13    34    1
    37    14    35    1
    38    15    36    1
    39    15    37    1
    40    15    38    1
    41    16    39    1
    42    17    40    1
    43    18    41    1
    44    19    42    1
    45    20    43    1
    46    21    44    1
@<TRIPOS>MOLECULE
9865384
 50 52 0 0 0
SMALL
GASTEIGER

@<TRIPOS>ATOM
      1 CL        112.9765  151.8412  148.7963 Cl      1  UNL111     -0.1093
      2 F         120.8931  153.0245  144.5014 F       1  UNL111     -0.3376
      3 F         111.8109  152.3083  146.0981 F       1  UNL111     -0.2797
      4 O         117.1117  155.1847  147.7456 O.2     1  UNL111     -0.3684
      5 N         117.9363  154.1832  145.8439 N.am    1  UNL111     -0.3194
      6 N         122.7860  152.3105  146.2499 N.4     1  UNL111      0.4410
      7 N         125.0591  153.5353  146.6905 N.pl3   1  UNL111     -0.2939
      8 C         120.3923  152.7310  145.7447 C.3     1  UNL111      0.0769
      9 C         120.2715  154.0509  146.5194 C.3     1  UNL111      0.0029
     10 C         119.0364  152.0360  145.5562 C.3     1  UNL111      0.0029
     11 C         119.1826  154.9309  145.9175 C.3     1  UNL111      0.0075
     12 C         117.9858  152.9958  144.9976 C.3     1  UNL111      0.0075
     13 C         121.4053  151.7723  146.3960 C.3     1  UNL111      0.0093
     14 C         116.9299  154.4719  146.7628 C.2     1  UNL111      0.1824
     15 C         123.9119  151.3972  146.6271 C.3     1  UNL111      0.0133
     16 C         115.5862  153.8848  146.5709 C.3     1  UNL111      0.0538
     17 C         125.1981  152.1796  146.7190 C.3     1  UNL111     -0.0089
     18 C         114.9811  153.2233  147.6451 C.3     1  UNL111      0.0011
     19 C         114.9031  154.0495  145.3580 C.3     1  UNL111     -0.0317
     20 C         126.4251  151.5430  146.8534 C.3     1  UNL111     -0.0463
     21 C         113.7049  152.6850  147.4854 C.3     1  UNL111      0.0846
     22 C         113.6245  153.5106  145.2080 C.3     1  UNL111     -0.0092
     23 C         113.0353  152.8264  146.2697 C.3     1  UNL111      0.1186
     24 C         127.5706  152.3294  146.9445 C.3     1  UNL111     -0.0663
     25 C         127.4680  153.7208  146.8941 C.3     1  UNL111     -0.0573
     26 C         126.1962  154.2688  146.7818 C.3     1  UNL111     -0.0180
     27 C         128.6777  154.5933  147.0247 C.3     1  UNL111     -0.0372
     28 H         122.9523  153.1748  146.7947 H       1  UNL111      0.1422
     29 H         122.9438  152.6254  145.2795 H       1  UNL111      0.1422
     30 H         121.2168  154.6036  146.4926 H       1  UNL111      0.0608
     31 H         120.0332  153.8430  147.5700 H       1  UNL111      0.0608
     32 H         118.6893  151.6431  146.5204 H       1  UNL111      0.0608
     33 H         119.1399  151.1886  144.8686 H       1  UNL111      0.0608
     34 H         119.0621  155.8415  146.5134 H       1  UNL111      0.0746
     35 H         119.4509  155.2396  144.9002 H       1  UNL111      0.0746
     36 H         118.2438  153.3122  143.9807 H       1  UNL111      0.0746
     37 H         117.0251  152.4791  144.9589 H       1  UNL111      0.0746
     38 H         121.2132  151.6174  147.4624 H       1  UNL111      0.0917
     39 H         121.4032  150.8076  145.8774 H       1  UNL111      0.0917
     40 H         123.9678  150.6215  145.8576 H       1  UNL111      0.0972
     41 H         123.6687  150.9621  147.6015 H       1  UNL111      0.0972
     42 H         115.5001  153.1375  148.5967 H       1  UNL111      0.1113
     43 H         115.3539  154.6066  144.5398 H       1  UNL111      0.1000
     44 H         126.5098  150.4608  146.8901 H       1  UNL111      0.1031
     45 H         113.0763  153.6260  144.2770 H       1  UNL111      0.1114
     46 H         128.5445  151.8546  147.0553 H       1  UNL111      0.0924
     47 H         126.0533  155.3476  146.7621 H       1  UNL111      0.1364
     48 H         128.8610  154.8254  148.0782 H       1  UNL111      0.0408
     49 H         128.5445  155.5302  146.4735 H       1  UNL111      0.0408
     50 H         129.5630  154.0975  146.6127 H       1  UNL111      0.0408
@<TRIPOS>UNITY_ATOM_ATTR
6 1
charge 1
@<TRIPOS>BOND
     1     1    21    1
     2     2     8    1
     3     3    23    1
     4     4    14    2
     5     5    11    1
     6     5    12    1
     7     5    14   am
     8     6    13    1
     9     6    15    1
    10     7    17   ar
    11     7    26   ar
    12     8     9    1
    13     8    10    1
    14     8    13    1
    15     9    11    1
    16    10    12    1
    17    14    16    1
    18    15    17    1
    19    16    18   ar
    20    16    19   ar
    21    17    20   ar
    22    18    21   ar
    23    19    22   ar
    24    20    24   ar
    25    21    23   ar
    26    22    23   ar
    27    24    25   ar
    28    25    26   ar
    29    25    27    1
    30     6    28    1
    31     6    29    1
    32     9    30    1
    33     9    31    1
    34    10    32    1
    35    10    33    1
    36    11    34    1
    37    11    35    1
    38    12    36    1
    39    12    37    1
    40    13    38    1
    41    13    39    1
    42    15    40    1
    43    15    41    1
    44    18    42    1
    45    19    43    1
    46    20    44    1
    47    22    45    1
    48    24    46    1
    49    26    47    1
    50    27    48    1
    51    27    49    1
    52    27    50    1
