@<TRIPOS>MOLECULE
5288826
 41 45 0 0 0
SMALL
GASTEIGER

@<TRIPOS>ATOM
      1 O         117.8937  152.5789  147.6718 O.3     1  UNL111     -0.5439
      2 O         117.0620  150.6449  146.0779 O.3     1  UNL111     -0.4348
      3 O         116.2883  154.9412  147.1047 O.3     1  UNL111     -0.5485
      4 N         123.0265  153.1386  146.8635 N.4     1  UNL111      0.4275
      5 C         120.2414  152.3248  147.0688 C.3     1  UNL111      0.0532
      6 C         121.1610  151.7354  145.9881 C.3     1  UNL111     -0.0026
      7 C         122.1773  152.8555  145.6003 C.3     1  UNL111     -0.0206
      8 C         118.9349  151.5656  147.4092 C.3     1  UNL111      0.0902
      9 C         121.0623  152.6636  148.3315 C.3     1  UNL111     -0.0259
     10 C         119.6150  153.5726  146.5416 C.ar    1  UNL111      0.0232
     11 C         121.5100  154.1474  145.0342 C.3     1  UNL111     -0.0213
     12 C         122.2288  153.6116  148.0575 C.3     1  UNL111     -0.0364
     13 C         120.1860  154.4801  145.6655 C.ar    1  UNL111     -0.0425
     14 C         118.4598  150.5600  146.3195 C.3     1  UNL111      0.0605
     15 C         120.3888  151.1631  144.8294 C.2     1  UNL111     -0.0869
     16 C         118.3163  153.6838  146.9820 C.ar    1  UNL111      0.1050
     17 C         119.1621  150.6448  144.9947 C.2     1  UNL111     -0.0672
     18 C         124.2238  154.0186  146.6079 C.3     1  UNL111     -0.0442
     19 C         119.4263  155.6025  145.3238 C.ar    1  UNL111     -0.0573
     20 C         117.5638  154.7896  146.6647 C.ar    1  UNL111      0.0917
     21 C         118.1254  155.7654  145.8423 C.ar    1  UNL111     -0.0140
     22 H         116.7711  151.5358  146.3453 H       1  UNL111      0.2424
     23 H         116.0794  154.1756  147.6709 H       1  UNL111      0.3393
     24 H         123.4339  152.2322  147.1328 H       1  UNL111      0.1328
     25 H         121.7284  150.8935  146.4112 H       1  UNL111      0.0720
     26 H         122.8930  152.4682  144.8645 H       1  UNL111      0.0854
     27 H         119.0492  151.0069  148.3471 H       1  UNL111      0.1417
     28 H         121.4560  151.7308  148.7569 H       1  UNL111      0.0544
     29 H         120.4290  153.1102  149.1091 H       1  UNL111      0.0544
     30 H         121.3191  153.9763  143.9664 H       1  UNL111      0.0615
     31 H         122.1788  155.0101  145.1003 H       1  UNL111      0.0615
     32 H         121.8996  154.6367  147.8608 H       1  UNL111      0.0738
     33 H         122.9112  153.6277  148.9145 H       1  UNL111      0.0738
     34 H         118.6448  149.5457  146.6947 H       1  UNL111      0.1221
     35 H         120.8471  151.1218  143.8427 H       1  UNL111      0.0812
     36 H         118.6463  150.1993  144.1446 H       1  UNL111      0.0909
     37 H         123.8899  155.0469  146.4557 H       1  UNL111      0.0667
     38 H         124.7480  153.6354  145.7290 H       1  UNL111      0.0667
     39 H         124.8741  153.9556  147.4847 H       1  UNL111      0.0667
     40 H         119.8109  156.3491  144.6311 H       1  UNL111      0.0939
     41 H         117.5358  156.6375  145.5667 H       1  UNL111      0.1139
@<TRIPOS>UNITY_ATOM_ATTR
4 1
charge 1
@<TRIPOS>BOND
     1     1     8    1
     2     1    16    1
     3     2    14    1
     4     3    20    1
     5     4     7    1
     6     4    12    1
     7     4    18    1
     8     5     6    1
     9     5     8    1
    10     5     9    1
    11     5    10    1
    12     6     7    1
    13     6    15    1
    14     7    11    1
    15     8    14    1
    16     9    12    1
    17    10    13   ar
    18    10    16   ar
    19    11    13    1
    20    13    19   ar
    21    14    17    1
    22    15    17    2
    23    16    20   ar
    24    19    21   ar
    25    20    21   ar
    26     2    22    1
    27     3    23    1
    28     4    24    1
    29     6    25    1
    30     7    26    1
    31     8    27    1
    32     9    28    1
    33     9    29    1
    34    11    30    1
    35    11    31    1
    36    12    32    1
    37    12    33    1
    38    14    34    1
    39    15    35    1
    40    17    36    1
    41    18    37    1
    42    18    38    1
    43    18    39    1
    44    19    40    1
    45    21    41    1
@<TRIPOS>MOLECULE
5360621
 60 65 0 0 0
SMALL
GASTEIGER

@<TRIPOS>ATOM
      1 O         120.4375  151.9183  145.5371 O.2     1  UNL111     -0.5434
      2 O         118.7054  152.6473  147.5066 O.3     1  UNL111     -0.3935
      3 O         121.2094  149.1534  145.9367 O.2     1  UNL111     -0.5485
      4 O         117.0113  153.8732  146.4681 O.3     1  UNL111     -0.3865
      5 O         117.0970  150.3128  147.3344 O.3     1  UNL111     -0.4257
      6 O         114.3151  150.7664  146.7867 O.3     1  UNL111     -0.4316
      7 O         113.8983  152.7890  144.7792 O.3     1  UNL111     -0.4315
      8 O         116.3732  156.0860  144.6139 O.co2   1  UNL111     -0.5546
      9 O         114.5807  155.8158  146.0126 O.co2   1  UNL111     -0.5546
     10 N         124.3051  155.4232  145.5411 N.4     1  UNL111      0.4275
     11 C         121.8946  153.8389  145.8567 C.3     1  UNL111      0.0537
     12 C         122.3026  154.8698  146.9226 C.3     1  UNL111     -0.0025
     13 C         120.4215  153.3618  145.8402 C.3     1  UNL111      0.0935
     14 C         123.8609  154.9105  146.9315 C.3     1  UNL111     -0.0206
     15 C         122.3671  154.2874  144.4598 C.3     1  UNL111     -0.0258
     16 C         122.5328  152.5325  146.2044 C.3     1  UNL111      0.0233
     17 C         124.5247  153.5458  147.2989 C.3     1  UNL111     -0.0213
     18 C         123.8677  154.5482  144.3890 C.3     1  UNL111     -0.0364
     19 C         119.6330  153.6758  147.1467 C.3     1  UNL111      0.0768
     20 C         123.7647  152.3433  146.8092 C.3     1  UNL111     -0.0425
     21 C         121.6915  154.5617  148.2670 C.2     1  UNL111     -0.0864
     22 C         121.6667  151.4948  145.9544 C.3     1  UNL111      0.1050
     23 C         120.4864  153.9766  148.3551 C.2     1  UNL111     -0.0634
     24 C         125.7656  155.7723  145.4575 C.3     1  UNL111     -0.0442
     25 C         124.1620  151.0249  147.0538 C.3     1  UNL111     -0.0573
     26 C         122.0468  150.1941  146.1843 C.3     1  UNL111      0.0917
     27 C         123.3101  149.9518  146.7207 C.3     1  UNL111     -0.0140
     28 C         117.5906  152.5977  146.5996 C.3     1  UNL111      0.1188
     29 C         116.5487  151.6357  147.1741 C.3     1  UNL111      0.0885
     30 C         115.3582  151.5816  146.2197 C.3     1  UNL111      0.0765
     31 C         114.8117  152.9804  145.8722 C.3     1  UNL111      0.0783
     32 C         115.9562  153.9186  145.4774 C.3     1  UNL111      0.1059
     33 C         115.5693  155.4151  145.3382 C.2     1  UNL111      0.0691
     34 H         120.3631  149.5411  145.6396 H       1  UNL111      0.3393
     35 H         117.9201  150.4507  147.8442 H       1  UNL111      0.2441
     36 H         114.7709  149.9617  147.1020 H       1  UNL111      0.2418
     37 H         113.1607  152.2770  145.1605 H       1  UNL111      0.2419
     38 H         123.8144  156.3201  145.4112 H       1  UNL111      0.1328
     39 H         121.9332  155.8648  146.6354 H       1  UNL111      0.0720
     40 H         119.8763  153.8281  145.0090 H       1  UNL111      0.1422
     41 H         124.2072  155.6782  147.6348 H       1  UNL111      0.0854
     42 H         121.8340  155.2070  144.1842 H       1  UNL111      0.0544
     43 H         122.1091  153.5428  143.6953 H       1  UNL111      0.0544
     44 H         124.5504  153.4807  148.3949 H       1  UNL111      0.0615
     45 H         125.5617  153.4927  146.9561 H       1  UNL111      0.0615
     46 H         124.4575  153.6265  144.4208 H       1  UNL111      0.0738
     47 H         124.1161  155.0826  143.4654 H       1  UNL111      0.0738
     48 H         119.0943  154.6203  146.9892 H       1  UNL111      0.1271
     49 H         122.2061  154.8497  149.1807 H       1  UNL111      0.0812
     50 H         120.0313  153.8035  149.3282 H       1  UNL111      0.0915
     51 H         126.3567  154.8541  145.4487 H       1  UNL111      0.0667
     52 H         126.0185  156.3980  146.3170 H       1  UNL111      0.0667
     53 H         125.9223  156.3326  144.5317 H       1  UNL111      0.0667
     54 H         125.1107  150.8083  147.5405 H       1  UNL111      0.0939
     55 H         123.6149  148.9286  146.9278 H       1  UNL111      0.1139
     56 H         117.9485  152.2307  145.6305 H       1  UNL111      0.1708
     57 H         116.2205  151.9598  148.1691 H       1  UNL111      0.1333
     58 H         115.6508  151.0639  145.2963 H       1  UNL111      0.1245
     59 H         114.2423  153.3746  146.7223 H       1  UNL111      0.1247
     60 H         116.3701  153.6094  144.5075 H       1  UNL111      0.1358
@<TRIPOS>UNITY_ATOM_ATTR
8 1
charge -1
10 1
charge 1
@<TRIPOS>BOND
     1     1    13    1
     2     1    22    1
     3     2    19    1
     4     2    28    1
     5     3    26    1
     6     4    28    1
     7     4    32    1
     8     5    29    1
     9     6    30    1
    10     7    31    1
    11     8    33   ar
    12     9    33   ar
    13    10    14    1
    14    10    18    1
    15    10    24    1
    16    11    12    1
    17    11    13    1
    18    11    15    1
    19    11    16    1
    20    12    14    1
    21    12    21    1
    22    13    19    1
    23    14    17    1
    24    15    18    1
    25    16    20   ar
    26    16    22   ar
    27    17    20    1
    28    19    23    1
    29    20    25   ar
    30    21    23    2
    31    22    26   ar
    32    25    27   ar
    33    26    27   ar
    34    28    29    1
    35    29    30    1
    36    30    31    1
    37    31    32    1
    38    32    33    1
    39     3    34    1
    40     5    35    1
    41     6    36    1
    42     7    37    1
    43    10    38    1
    44    12    39    1
    45    13    40    1
    46    14    41    1
    47    15    42    1
    48    15    43    1
    49    17    44    1
    50    17    45    1
    51    18    46    1
    52    18    47    1
    53    19    48    1
    54    21    49    1
    55    23    50    1
    56    24    51    1
    57    24    52    1
    58    24    53    1
    59    25    54    1
    60    27    55    1
    61    28    56    1
    62    29    57    1
    63    30    58    1
    64    31    59    1
    65    32    60    1
@<TRIPOS>MOLECULE
117065089
 37 42 0 0 0
SMALL
GASTEIGER

@<TRIPOS>ATOM
      1 O         118.1966  149.9892  145.2533 O.2     1  UNL111     -0.5370
      2 O         121.5277  151.3217  145.7945 O.3     1  UNL111     -0.3337
      3 O         115.4652  149.0133  144.3296 O.co2   1  UNL111     -0.7919
      4 O         122.3775  153.5976  145.4623 O.3     1  UNL111     -0.3262
      5 O         121.8074  151.8456  148.5419 O.3     1  UNL111     -0.2560
      6 O         121.2418  154.5697  149.3593 O.3     1  UNL111     -0.2635
      7 O         120.7008  156.1760  147.0804 O.3     1  UNL111     -0.2676
      8 O         122.0927  155.9164  143.5865 O.co2   1  UNL111     -0.5492
      9 O         123.7393  156.6443  144.9605 O.co2   1  UNL111     -0.5492
     10 N         118.4837  154.7135  147.9897 N.4     1  UNL111      0.4425
     11 C         118.4600  152.0014  146.5608 C.3     1  UNL111      0.1098
     12 C         118.7313  153.4363  145.9535 C.3     1  UNL111      0.0693
     13 C         119.1700  150.8470  145.8630 C.3     1  UNL111      0.1722
     14 C         117.9442  154.4704  146.6525 C.3     1  UNL111      0.0449
     15 C         118.5854  152.0728  148.0160 C.3     1  UNL111      0.0745
     16 C         117.0270  151.7155  146.1885 C.2     1  UNL111      0.0262
     17 C         116.5606  153.9843  146.5728 C.3     1  UNL111      0.0637
     18 C         118.5831  153.4265  148.6825 C.3     1  UNL111      0.0451
     19 C         120.3348  151.2996  145.0345 C.3     1  UNL111      0.1716
     20 C         116.0172  152.6795  146.2722 C.2     1  UNL111     -0.0032
     21 C         119.3237  153.4408  144.6687 C.2     1  UNL111     -0.0073
     22 C         116.9188  150.5257  145.4790 C.2     1  UNL111      0.0493
     23 C         119.9737  152.4986  144.3147 C.2     1  UNL111      0.0270
     24 C         117.9796  155.8661  148.7005 C.3     1  UNL111     -0.0320
     25 C         114.7953  152.3539  145.7373 C.2     1  UNL111     -0.0116
     26 C         115.6886  150.1073  144.9514 C.2     1  UNL111     -0.0514
     27 C         114.6519  151.0703  145.1525 C.2     1  UNL111     -0.0254
     28 C         121.9900  152.5536  146.3179 C.3     1  UNL111      0.2451
     29 C         121.8084  152.8380  147.7495 C.3     1  UNL111      0.2743
     30 C         121.6167  154.2555  148.1836 C.3     1  UNL111      0.2696
     31 C         121.6223  155.2967  147.0995 C.3     1  UNL111      0.2526
     32 C         122.2039  154.9636  145.7901 C.3     1  UNL111      0.2099
     33 C         122.6862  155.9569  144.7248 C.2     1  UNL111      0.0968
     34 H         119.5268  154.9694  147.8532 H       1  UNL111      0.1528
     35 H         116.9398  155.6853  148.9927 H       1  UNL111      0.0693
     36 H         118.0314  156.7503  148.0575 H       1  UNL111      0.0693
     37 H         118.5835  156.0304  149.5981 H       1  UNL111      0.0693
@<TRIPOS>UNITY_ATOM_ATTR
3 1
charge -1
8 1
charge -1
10 1
charge 1
@<TRIPOS>BOND
     1     1    13    1
     2     1    22    1
     3     2    19    1
     4     2    28    1
     5     3    26    1
     6     4    28    1
     7     4    32    1
     8     5    29    1
     9     6    30    1
    10     7    31    1
    11     8    33   ar
    12     9    33   ar
    13    10    14    1
    14    10    18    1
    15    10    24    1
    16    11    12    1
    17    11    13    1
    18    11    15    1
    19    11    16    1
    20    12    14    1
    21    12    21    1
    22    13    19    1
    23    14    17    1
    24    15    18    1
    25    16    20    2
    26    16    22    1
    27    17    20    1
    28    19    23    1
    29    20    25    1
    30    21    23    2
    31    22    26    2
    32    25    27    2
    33    26    27    1
    34    28    29    1
    35    29    30    1
    36    30    31    1
    37    31    32    1
    38    32    33    1
    39    10    34    1
    40    24    35    1
    41    24    36    1
    42    24    37    1
@<TRIPOS>MOLECULE
117065139
 37 42 0 0 0
SMALL
GASTEIGER

@<TRIPOS>ATOM
      1 O         121.0025  150.4909  147.3739 O.2     1  UNL111     -0.5136
      2 O         123.8721  149.6747  148.6305 O.3     1  UNL111     -0.2743
      3 O         118.1397  150.8398  146.1655 O.2     1  UNL111     -0.4732
      4 O         118.0742  153.1216  147.0346 O.3     1  UNL111     -0.3115
      5 O         115.5396  151.1873  145.3215 O.3     1  UNL111     -0.2487
      6 O         114.2597  153.7682  146.0310 O.3     1  UNL111     -0.2622
      7 O         116.3389  155.8428  145.4956 O.3     1  UNL111     -0.2673
      8 O         119.6995  155.7949  146.2307 O.co2   1  UNL111     -0.5491
      9 O         118.9648  155.7923  148.3452 O.co2   1  UNL111     -0.5491
     10 N         122.9349  155.5340  146.6188 N.4     1  UNL111      0.4425
     11 C         122.2449  152.5288  147.1811 C.3     1  UNL111      0.1160
     12 C         123.5968  153.1313  146.6090 C.3     1  UNL111      0.0703
     13 C         123.3045  154.3545  145.7878 C.3     1  UNL111      0.0450
     14 C         122.2349  151.1207  147.7832 C.3     1  UNL111      0.1906
     15 C         121.7579  153.5866  148.0692 C.3     1  UNL111      0.0752
     16 C         121.3190  152.2793  146.0257 C.2     1  UNL111      0.0473
     17 C         122.3383  153.9597  144.7915 C.3     1  UNL111      0.0645
     18 C         122.0447  155.0171  147.6895 C.3     1  UNL111      0.0451
     19 C         121.2688  153.0233  144.8455 C.2     1  UNL111      0.0045
     20 C         123.5034  150.3425  147.6363 C.3     1  UNL111      0.2115
     21 C         124.6136  152.1619  146.4569 C.2     1  UNL111     -0.0043
     22 C         120.4927  151.2246  146.3162 C.2     1  UNL111      0.1251
     23 C         124.5105  151.0559  146.9067 C.2     1  UNL111      0.0424
     24 C         120.2753  152.7635  143.9320 C.2     1  UNL111      0.0161
     25 C         122.2892  156.6434  145.8482 C.3     1  UNL111     -0.0320
     26 C         119.3460  151.1492  145.5608 C.2     1  UNL111      0.1431
     27 C         119.2801  151.8569  144.3272 C.2     1  UNL111      0.0700
     28 C         117.4042  152.0150  146.4729 C.3     1  UNL111      0.2813
     29 C         116.0544  152.1886  145.9210 C.3     1  UNL111      0.2913
     30 C         115.4998  153.5827  145.7895 C.3     1  UNL111      0.2751
     31 C         116.4625  154.7161  146.0717 C.3     1  UNL111      0.2547
     32 C         117.7478  154.4577  146.7308 C.3     1  UNL111      0.2151
     33 C         118.8110  155.4814  147.1079 C.2     1  UNL111      0.0978
     34 H         123.7505  155.8902  147.1124 H       1  UNL111      0.1528
     35 H         121.5865  156.2834  145.0976 H       1  UNL111      0.0693
     36 H         123.0973  157.1716  145.3305 H       1  UNL111      0.0693
     37 H         121.8233  157.3381  146.5540 H       1  UNL111      0.0693
@<TRIPOS>UNITY_ATOM_ATTR
8 1
charge -1
10 1
charge 1
@<TRIPOS>BOND
     1     1    14    1
     2     1    22    1
     3     2    20    1
     4     3    26    1
     5     3    28    1
     6     4    28    1
     7     4    32    1
     8     5    29    1
     9     6    30    1
    10     7    31    1
    11     8    33   ar
    12     9    33   ar
    13    10    13    1
    14    10    18    1
    15    10    25    1
    16    11    12    1
    17    11    14    1
    18    11    15    1
    19    11    16    1
    20    12    13    1
    21    12    21    1
    22    13    17    1
    23    14    20    1
    24    15    18    1
    25    16    19    2
    26    16    22    1
    27    17    19    1
    28    19    24    1
    29    20    23    1
    30    21    23    2
    31    22    26    2
    32    24    27    2
    33    26    27    1
    34    28    29    1
    35    29    30    1
    36    30    31    1
    37    31    32    1
    38    32    33    1
    39    10    34    1
    40    25    35    1
    41    25    36    1
    42    25    37    1
@<TRIPOS>MOLECULE
5484731
 60 65 0 0 0
SMALL
GASTEIGER

@<TRIPOS>ATOM
      1 O         119.3849  152.2936  148.0849 O.2     1  UNL111     -0.5434
      2 O         120.4232  154.7402  148.6940 O.3     1  UNL111     -0.4348
      3 O         121.1254  150.7364  146.2054 O.2     1  UNL111     -0.5163
      4 O         122.0002  152.9594  146.0677 O.3     1  UNL111     -0.3726
      5 O         123.6766  149.8157  146.9979 O.3     1  UNL111     -0.4215
      6 O         125.8597  151.5520  146.4024 O.3     1  UNL111     -0.4308
      7 O         125.3314  154.3027  146.9920 O.3     1  UNL111     -0.4313
      8 O         121.7027  155.9383  146.7053 O.co2   1  UNL111     -0.5544
      9 O         123.0272  155.5920  144.8713 O.co2   1  UNL111     -0.5544
     10 N         114.5317  153.0909  146.3569 N.4     1  UNL111      0.4275
     11 C         117.2136  153.1876  147.4811 C.3     1  UNL111      0.0533
     12 C         116.5131  154.4624  146.9861 C.3     1  UNL111     -0.0026
     13 C         115.6123  154.0468  145.7867 C.3     1  UNL111     -0.0206
     14 C         118.4146  153.3395  148.4431 C.3     1  UNL111      0.0902
     15 C         116.1648  152.1926  148.0214 C.3     1  UNL111     -0.0259
     16 C         117.9401  152.5531  146.3410 C.3     1  UNL111      0.0238
     17 C         116.3890  153.4132  144.5956 C.3     1  UNL111     -0.0213
     18 C         115.0900  151.8397  146.9968 C.3     1  UNL111     -0.0364
     19 C         117.5415  152.5451  145.0132 C.3     1  UNL111     -0.0425
     20 C         119.0240  154.7732  148.4881 C.3     1  UNL111      0.0605
     21 C         117.4801  155.5672  146.6760 C.2     1  UNL111     -0.0869
     22 C         119.1354  152.0139  146.7681 C.3     1  UNL111      0.1094
     23 C         118.6273  155.6878  147.3600 C.2     1  UNL111     -0.0672
     24 C         118.3311  151.8318  144.1117 C.3     1  UNL111     -0.0567
     25 C         113.4269  152.7798  145.3860 C.3     1  UNL111     -0.0442
     26 C         119.9318  151.3138  145.8848 C.3     1  UNL111      0.1106
     27 C         119.5015  151.1900  144.5565 C.3     1  UNL111     -0.0097
     28 C         122.0946  151.6939  146.7015 C.3     1  UNL111      0.1502
     29 C         123.4747  151.0987  146.3707 C.3     1  UNL111      0.0995
     30 C         124.5760  152.0512  146.8281 C.3     1  UNL111      0.0797
     31 C         124.3715  153.4834  146.3070 C.3     1  UNL111      0.0796
     32 C         122.9410  153.9235  146.6018 C.3     1  UNL111      0.1102
     33 C         122.5533  155.2972  146.0035 C.2     1  UNL111      0.0700
     34 H         120.8642  155.2312  147.9492 H       1  UNL111      0.2424
     35 H         122.8651  149.3082  146.8037 H       1  UNL111      0.2455
     36 H         125.8514  150.6078  146.6541 H       1  UNL111      0.2420
     37 H         126.1984  153.9467  146.7220 H       1  UNL111      0.2419
     38 H         114.0772  153.6197  147.1132 H       1  UNL111      0.1328
     39 H         115.8616  154.8529  147.7819 H       1  UNL111      0.0720
     40 H         115.0496  154.9173  145.4267 H       1  UNL111      0.0854
     41 H         118.1072  153.0975  149.4694 H       1  UNL111      0.1417
     42 H         115.6828  152.6312  148.9055 H       1  UNL111      0.0544
     43 H         116.6373  151.2618  148.3617 H       1  UNL111      0.0544
     44 H         116.8086  154.2360  144.0014 H       1  UNL111      0.0615
     45 H         115.7239  152.8545  143.9311 H       1  UNL111      0.0615
     46 H         115.4627  151.1875  146.2008 H       1  UNL111      0.0738
     47 H         114.2533  151.3321  147.4896 H       1  UNL111      0.0738
     48 H         118.6159  155.2563  149.3862 H       1  UNL111      0.1221
     49 H         117.2536  156.3044  145.9089 H       1  UNL111      0.0812
     50 H         119.3005  156.5149  147.1306 H       1  UNL111      0.0909
     51 H         118.0885  151.8047  143.0519 H       1  UNL111      0.0940
     52 H         113.7992  152.0956  144.6207 H       1  UNL111      0.0667
     53 H         113.0817  153.7188  144.9462 H       1  UNL111      0.0667
     54 H         112.6133  152.3129  145.9478 H       1  UNL111      0.0667
     55 H         120.1302  150.6632  143.8419 H       1  UNL111      0.1146
     56 H         121.9565  151.7766  147.7872 H       1  UNL111      0.1975
     57 H         123.5641  150.9249  145.2908 H       1  UNL111      0.1391
     58 H         124.6245  152.0608  147.9252 H       1  UNL111      0.1254
     59 H         124.5962  153.5266  145.2347 H       1  UNL111      0.1249
     60 H         122.8013  153.9928  147.6889 H       1  UNL111      0.1368
@<TRIPOS>UNITY_ATOM_ATTR
8 1
charge -1
10 1
charge 1
@<TRIPOS>BOND
     1     1    14    1
     2     1    22    1
     3     2    20    1
     4     3    26    1
     5     3    28    1
     6     4    28    1
     7     4    32    1
     8     5    29    1
     9     6    30    1
    10     7    31    1
    11     8    33   ar
    12     9    33   ar
    13    10    13    1
    14    10    18    1
    15    10    25    1
    16    11    12    1
    17    11    14    1
    18    11    15    1
    19    11    16    1
    20    12    13    1
    21    12    21    1
    22    13    17    1
    23    14    20    1
    24    15    18    1
    25    16    19   ar
    26    16    22   ar
    27    17    19    1
    28    19    24   ar
    29    20    23    1
    30    21    23    2
    31    22    26   ar
    32    24    27   ar
    33    26    27   ar
    34    28    29    1
    35    29    30    1
    36    30    31    1
    37    31    32    1
    38    32    33    1
    39     2    34    1
    40     5    35    1
    41     6    36    1
    42     7    37    1
    43    10    38    1
    44    12    39    1
    45    13    40    1
    46    14    41    1
    47    15    42    1
    48    15    43    1
    49    17    44    1
    50    17    45    1
    51    18    46    1
    52    18    47    1
    53    20    48    1
    54    21    49    1
    55    23    50    1
    56    24    51    1
    57    25    52    1
    58    25    53    1
    59    25    54    1
    60    27    55    1
    61    28    56    1
    62    29    57    1
    63    30    58    1
    64    31    59    1
    65    32    60    1
@<TRIPOS>MOLECULE
5362459
 41 45 0 0 0
SMALL
GASTEIGER

@<TRIPOS>ATOM
      1 O         121.9334  152.4653  145.1201 O.2     1  UNL1111    -0.5439
      2 O         116.0936  152.2613  145.7719 O.co2   1  UNL1111    -0.7565
      3 O         122.6417  150.4168  146.6220 O.3     1  UNL1111    -0.4348
      4 O         123.7386  154.6789  145.6371 O.2     1  UNL1111    -0.5485
      5 N         116.8223  153.3938  146.0884 N.3     1  UNL1111     0.4023
      6 C         119.5817  152.4029  145.7830 C.3     1  UNL1111     0.0528
      7 C         118.6706  151.8911  146.9094 C.3     1  UNL1111    -0.0053
      8 C         117.7372  153.0839  147.2961 C.3     1  UNL1111    -0.0391
      9 C         120.8100  151.5427  145.4045 C.3     1  UNL1111     0.0902
     10 C         118.7415  152.7908  144.5487 C.3     1  UNL1111    -0.0286
     11 C         120.3224  153.6014  146.2796 C.3     1  UNL1111     0.0232
     12 C         117.6370  153.7970  144.8769 C.3     1  UNL1111    -0.0549
     13 C         118.5253  154.3145  147.8451 C.3     1  UNL1111    -0.0241
     14 C         119.8542  154.5479  147.1751 C.3     1  UNL1111    -0.0427
     15 C         121.2254  150.4971  146.4813 C.3     1  UNL1111     0.0605
     16 C         119.4620  151.3061  148.0573 C.2     1  UNL1111    -0.0871
     17 C         121.6138  153.6044  145.8096 C.3     1  UNL1111     0.1050
     18 C         120.6335  150.6849  147.8486 C.2     1  UNL1111    -0.0672
     19 C         115.8204  154.4703  146.4044 C.3     1  UNL1111    -0.0627
     20 C         120.7128  155.6029  147.4988 C.3     1  UNL1111    -0.0573
     21 C         122.4647  154.6427  146.1101 C.3     1  UNL1111     0.0917
     22 C         122.0092  155.6603  146.9471 C.3     1  UNL1111    -0.0140
     23 H         122.9820  151.3150  146.4564 H       1  UNL1111     0.2424
     24 H         123.8381  153.9033  145.0540 H       1  UNL1111     0.3393
     25 H         118.0575  151.0633  146.5284 H       1  UNL1111     0.0718
     26 H         117.0289  152.7557  148.0693 H       1  UNL1111     0.0821
     27 H         120.6316  151.0003  144.4672 H       1  UNL1111     0.1417
     28 H         118.2849  151.8823  144.1349 H       1  UNL1111     0.0542
     29 H         119.3706  153.2100  143.7529 H       1  UNL1111     0.0542
     30 H         118.0401  154.7947  145.0772 H       1  UNL1111     0.0705
     31 H         116.9301  153.8758  144.0424 H       1  UNL1111     0.0705
     32 H         118.7353  154.1233  148.9060 H       1  UNL1111     0.0613
     33 H         117.9355  155.2328  147.8046 H       1  UNL1111     0.0613
     34 H         120.8941  149.5084  146.1401 H       1  UNL1111     0.1221
     35 H         119.0404  151.3407  149.0587 H       1  UNL1111     0.0811
     36 H         121.1570  150.2245  148.6832 H       1  UNL1111     0.0909
     37 H         115.3218  154.1972  147.3378 H       1  UNL1111     0.0634
     38 H         115.1003  154.4975  145.5808 H       1  UNL1111     0.0634
     39 H         116.3323  155.4300  146.4837 H       1  UNL1111     0.0634
     40 H         120.4029  156.3729  148.2020 H       1  UNL1111     0.0939
     41 H         122.6745  156.4795  147.2080 H       1  UNL1111     0.1139
@<TRIPOS>UNITY_ATOM_ATTR
2 1
charge -1
5 1
charge 1
@<TRIPOS>BOND
     1     1     9    1
     2     1    17    1
     3     2     5    1
     4     3    15    1
     5     4    21    1
     6     5     8    1
     7     5    12    1
     8     5    19    1
     9     6     7    1
    10     6     9    1
    11     6    10    1
    12     6    11    1
    13     7     8    1
    14     7    16    1
    15     8    13    1
    16     9    15    1
    17    10    12    1
    18    11    14   ar
    19    11    17   ar
    20    13    14    1
    21    14    20   ar
    22    15    18    1
    23    16    18    2
    24    17    21   ar
    25    20    22   ar
    26    21    22   ar
    27     3    23    1
    28     4    24    1
    29     7    25    1
    30     8    26    1
    31     9    27    1
    32    10    28    1
    33    10    29    1
    34    12    30    1
    35    12    31    1
    36    13    32    1
    37    13    33    1
    38    15    34    1
    39    16    35    1
    40    18    36    1
    41    19    37    1
    42    19    38    1
    43    19    39    1
    44    20    40    1
    45    22    41    1
@<TRIPOS>MOLECULE
571623
 63 69 0 0 0
SMALL
GASTEIGER

@<TRIPOS>ATOM
      1 O         120.4344  153.3062  147.0405 O.2     1  UNL111     -0.5384
      2 O         117.0904  154.2011  146.4572 O.3     1  UNL111     -0.4921
      3 O         123.1060  153.5850  145.9275 O.3     1  UNL111     -0.4456
      4 O         117.2703  155.9715  145.0079 O.2     1  UNL111     -0.3202
      5 O         124.7666  152.2849  146.9335 O.2     1  UNL111     -0.3170
      6 N         118.6382  148.4456  147.2634 N.4     1  UNL111      0.4275
      7 N         113.3738  155.2631  147.7082 N.pl3   1  UNL111     -0.3003
      8 N         125.0788  157.0368  146.8379 N.pl3   1  UNL111     -0.3003
      9 C         119.0704  151.3169  146.9265 C.3     1  UNL111      0.0569
     10 C         117.9456  150.6131  146.1589 C.3     1  UNL111     -0.0012
     11 C         118.4256  149.1536  145.9030 C.3     1  UNL111     -0.0204
     12 C         119.0261  152.8586  147.0283 C.3     1  UNL111      0.1051
     13 C         119.2582  150.6500  148.3061 C.3     1  UNL111     -0.0252
     14 C         120.3415  151.2081  146.1507 C.3     1  UNL111      0.0253
     15 C         119.7299  149.0592  145.0485 C.3     1  UNL111     -0.0213
     16 C         119.5805  149.1614  148.2084 C.3     1  UNL111     -0.0363
     17 C         120.7144  150.1643  145.3184 C.3     1  UNL111     -0.0422
     18 C         118.2634  153.5811  145.8767 C.3     1  UNL111      0.1138
     19 C         117.5610  151.3526  144.9058 C.2     1  UNL111     -0.0822
     20 C         121.0968  152.3491  146.3156 C.3     1  UNL111      0.1152
     21 C         117.7275  152.6780  144.7901 C.2     1  UNL111     -0.0491
     22 C         117.3485  148.0368  147.9320 C.3     1  UNL111     -0.0442
     23 C         121.9566  150.2644  144.6894 C.3     1  UNL111     -0.0561
     24 C         122.3443  152.4349  145.7423 C.3     1  UNL111      0.1350
     25 C         122.7734  151.3919  144.9084 C.3     1  UNL111     -0.0050
     26 C         116.6789  155.3582  145.8798 C.2     1  UNL111      0.2703
     27 C         124.3161  153.3564  146.5555 C.2     1  UNL111      0.2823
     28 C         115.3559  155.7606  146.4041 C.3     1  UNL111      0.0999
     29 C         125.0611  154.6252  146.6648 C.3     1  UNL111      0.1025
     30 C         114.7915  156.9738  146.0037 C.3     1  UNL111     -0.0263
     31 C         114.6106  154.9497  147.2505 C.3     1  UNL111      0.0209
     32 C         113.5220  157.3243  146.4603 C.3     1  UNL111     -0.0510
     33 C         126.4559  154.6030  146.7401 C.3     1  UNL111     -0.0259
     34 C         124.4229  155.8564  146.7225 C.3     1  UNL111      0.0213
     35 C         112.8578  156.4447  147.3011 C.3     1  UNL111     -0.0230
     36 C         127.1539  155.8033  146.8525 C.3     1  UNL111     -0.0510
     37 C         126.4286  156.9836  146.8979 C.3     1  UNL111     -0.0230
     38 H         119.1034  147.5531  147.0457 H       1  UNL111      0.1328
     39 H         117.0378  150.5874  146.7757 H       1  UNL111      0.0721
     40 H         117.6469  148.5708  145.3957 H       1  UNL111      0.0854
     41 H         118.6029  153.1662  147.9932 H       1  UNL111      0.1478
     42 H         118.3427  150.7855  148.8966 H       1  UNL111      0.0545
     43 H         120.0599  151.1373  148.8765 H       1  UNL111      0.0545
     44 H         119.4441  149.1296  143.9910 H       1  UNL111      0.0615
     45 H         120.2132  148.0858  145.1910 H       1  UNL111      0.0615
     46 H         120.5950  148.9861  147.8363 H       1  UNL111      0.0738
     47 H         119.5092  148.6739  149.1869 H       1  UNL111      0.0738
     48 H         118.9241  154.3360  145.4332 H       1  UNL111      0.1535
     49 H         117.1014  150.8085  144.0822 H       1  UNL111      0.0821
     50 H         117.4187  153.1784  143.8721 H       1  UNL111      0.0975
     51 H         116.8220  148.9290  148.2763 H       1  UNL111      0.0667
     52 H         117.5998  147.3877  148.7752 H       1  UNL111      0.0667
     53 H         116.7499  147.4810  147.2061 H       1  UNL111      0.0667
     54 H         122.3034  149.4893  144.0082 H       1  UNL111      0.0940
     55 H         123.7392  151.4560  144.4111 H       1  UNL111      0.1154
     56 H         115.3295  157.6420  145.3343 H       1  UNL111      0.1017
     57 H         114.9750  153.9873  147.5949 H       1  UNL111      0.1456
     58 H         113.0595  158.2596  146.1621 H       1  UNL111      0.0990
     59 H         126.9986  153.6609  146.7070 H       1  UNL111      0.1017
     60 H         123.3407  155.9486  146.6905 H       1  UNL111      0.1457
     61 H         111.8637  156.6730  147.6773 H       1  UNL111      0.1342
     62 H         128.2376  155.8185  146.9053 H       1  UNL111      0.0990
     63 H         126.9276  157.9451  146.9883 H       1  UNL111      0.1342
@<TRIPOS>UNITY_ATOM_ATTR
6 1
charge 1
@<TRIPOS>BOND
     1     1    12    1
     2     1    20    1
     3     2    18    1
     4     2    26    1
     5     3    24    1
     6     3    27    1
     7     4    26    2
     8     5    27    2
     9     6    11    1
    10     6    16    1
    11     6    22    1
    12     7    31   ar
    13     7    35   ar
    14     8    34   ar
    15     8    37   ar
    16     9    10    1
    17     9    12    1
    18     9    13    1
    19     9    14    1
    20    10    11    1
    21    10    19    1
    22    11    15    1
    23    12    18    1
    24    13    16    1
    25    14    17   ar
    26    14    20   ar
    27    15    17    1
    28    17    23   ar
    29    18    21    1
    30    19    21    2
    31    20    24   ar
    32    23    25   ar
    33    24    25   ar
    34    26    28    1
    35    27    29    1
    36    28    30   ar
    37    28    31   ar
    38    29    33   ar
    39    29    34   ar
    40    30    32   ar
    41    32    35   ar
    42    33    36   ar
    43    36    37   ar
    44     6    38    1
    45    10    39    1
    46    11    40    1
    47    12    41    1
    48    13    42    1
    49    13    43    1
    50    15    44    1
    51    15    45    1
    52    16    46    1
    53    16    47    1
    54    18    48    1
    55    19    49    1
    56    21    50    1
    57    22    51    1
    58    22    52    1
    59    22    53    1
    60    23    54    1
    61    25    55    1
    62    30    56    1
    63    31    57    1
    64    32    58    1
    65    33    59    1
    66    34    60    1
    67    35    61    1
    68    36    62    1
    69    37    63    1
@<TRIPOS>MOLECULE
11574548
 51 55 0 0 0
SMALL
GASTEIGER

@<TRIPOS>ATOM
      1 O         119.8521  153.9778  144.9950 O.2     1  UNL111     -0.5395
      2 O         121.7758  152.6220  146.1805 O.3     1  UNL111     -0.5023
      3 O         120.1077  156.7519  145.8441 O.2     1  UNL111     -0.5485
      4 O         123.0662  150.8076  145.6535 O.2     1  UNL111     -0.3392
      5 O         127.4812  152.8685  147.4033 O.co2   1  UNL111     -0.5701
      6 O         126.2975  154.4780  146.2961 O.co2   1  UNL111     -0.5701
      7 N         115.3379  151.6650  146.1977 N.4     1  UNL111      0.4275
      8 C         118.0876  152.4696  145.7082 C.3     1  UNL111      0.0568
      9 C         117.7530  151.3884  146.7470 C.3     1  UNL111     -0.0012
     10 C         116.3649  151.7603  147.3530 C.3     1  UNL111     -0.0204
     11 C         119.5408  152.5509  145.1785 C.3     1  UNL111      0.1046
     12 C         117.0559  152.4404  144.5610 C.3     1  UNL111     -0.0252
     13 C         118.0410  153.8042  146.3754 C.3     1  UNL111      0.0241
     14 C         116.3325  153.1505  148.0605 C.3     1  UNL111     -0.0213
     15 C         115.6162  152.6007  145.0427 C.3     1  UNL111     -0.0363
     16 C         117.1998  154.1893  147.4060 C.3     1  UNL111     -0.0424
     17 C         120.5969  151.8188  146.0595 C.3     1  UNL111      0.1113
     18 C         118.8469  151.2175  147.7653 C.2     1  UNL111     -0.0823
     19 C         119.0331  154.6197  145.8822 C.3     1  UNL111      0.1061
     20 C         120.1310  151.4353  147.4440 C.2     1  UNL111     -0.0495
     21 C         113.9047  151.7447  146.6503 C.3     1  UNL111     -0.0442
     22 C         117.3084  155.5064  147.8607 C.3     1  UNL111     -0.0573
     23 C         119.1466  155.9182  146.3176 C.3     1  UNL111      0.0919
     24 C         118.2658  156.3747  147.2980 C.3     1  UNL111     -0.0140
     25 C         122.9636  151.9900  145.9513 C.2     1  UNL111      0.2210
     26 C         124.0930  152.9757  146.0675 C.3     1  UNL111      0.0725
     27 C         125.3735  152.3104  146.5424 C.3     1  UNL111      0.0206
     28 C         126.4921  153.3227  146.7640 C.2     1  UNL111      0.0264
     29 H         120.7339  156.2040  145.3310 H       1  UNL111      0.3393
     30 H         115.4366  150.7122  145.8211 H       1  UNL111      0.1328
     31 H         117.6566  150.4150  146.2441 H       1  UNL111      0.0721
     32 H         116.0534  150.9870  148.0664 H       1  UNL111      0.0854
     33 H         119.6010  152.1114  144.1739 H       1  UNL111      0.1477
     34 H         117.1475  151.4847  144.0278 H       1  UNL111      0.0545
     35 H         117.2619  153.2242  143.8204 H       1  UNL111      0.0545
     36 H         116.7188  153.0089  149.0787 H       1  UNL111      0.0615
     37 H         115.3116  153.5294  148.1610 H       1  UNL111      0.0615
     38 H         115.3918  153.6206  145.3702 H       1  UNL111      0.0738
     39 H         114.9186  152.3366  144.2402 H       1  UNL111      0.0738
     40 H         120.8102  150.8697  145.5499 H       1  UNL111      0.1530
     41 H         118.6090  150.8714  148.7692 H       1  UNL111      0.0821
     42 H         120.9101  151.2641  148.1864 H       1  UNL111      0.0975
     43 H         113.6718  152.7729  146.9344 H       1  UNL111      0.0667
     44 H         113.7727  151.0597  147.4915 H       1  UNL111      0.0667
     45 H         113.2747  151.4298  145.8138 H       1  UNL111      0.0667
     46 H         116.6879  155.8708  148.6769 H       1  UNL111      0.0939
     47 H         118.3595  157.3947  147.6645 H       1  UNL111      0.1139
     48 H         123.8026  153.7561  146.7820 H       1  UNL111      0.0892
     49 H         124.2267  153.4437  145.0858 H       1  UNL111      0.0892
     50 H         125.7158  151.5723  145.8073 H       1  UNL111      0.0627
     51 H         125.1902  151.7730  147.4813 H       1  UNL111      0.0627
@<TRIPOS>UNITY_ATOM_ATTR
5 1
charge -1
7 1
charge 1
@<TRIPOS>BOND
     1     1    11    1
     2     1    19    1
     3     2    17    1
     4     2    25    1
     5     3    23    1
     6     4    25    2
     7     5    28   ar
     8     6    28   ar
     9     7    10    1
    10     7    15    1
    11     7    21    1
    12     8     9    1
    13     8    11    1
    14     8    12    1
    15     8    13    1
    16     9    10    1
    17     9    18    1
    18    10    14    1
    19    11    17    1
    20    12    15    1
    21    13    16   ar
    22    13    19   ar
    23    14    16    1
    24    16    22   ar
    25    17    20    1
    26    18    20    2
    27    19    23   ar
    28    22    24   ar
    29    23    24   ar
    30    25    26    1
    31    26    27    1
    32    27    28    1
    33     3    29    1
    34     7    30    1
    35     9    31    1
    36    10    32    1
    37    11    33    1
    38    12    34    1
    39    12    35    1
    40    14    36    1
    41    14    37    1
    42    15    38    1
    43    15    39    1
    44    17    40    1
    45    18    41    1
    46    20    42    1
    47    21    43    1
    48    21    44    1
    49    21    45    1
    50    22    46    1
    51    24    47    1
    52    26    48    1
    53    26    49    1
    54    27    50    1
    55    27    51    1
@<TRIPOS>MOLECULE
12986624
 57 61 0 0 0
SMALL
GASTEIGER

@<TRIPOS>ATOM
      1 O         119.3855  153.3412  147.8721 O.2     1  UNL111     -0.5385
      2 O         117.9756  151.4887  146.6511 O.3     1  UNL111     -0.5027
      3 O         118.2176  155.8907  147.0293 O.3     1  UNL111     -0.4563
      4 O         117.3122  149.2978  146.5976 O.2     1  UNL111     -0.3399
      5 O         117.1328  154.5535  145.4451 O.2     1  UNL111     -0.3367
      6 N         124.3995  152.5947  146.6671 N.4     1  UNL111      0.4275
      7 C         121.5339  152.4816  147.1462 C.3     1  UNL111      0.0569
      8 C         122.1987  151.5723  146.1022 C.3     1  UNL111     -0.0012
      9 C         123.3996  152.3711  145.5072 C.3     1  UNL111     -0.0204
     10 C         120.1287  152.0888  147.6664 C.3     1  UNL111      0.1047
     11 C         122.5184  152.7721  148.2990 C.3     1  UNL111     -0.0252
     12 C         121.1507  153.7673  146.4899 C.3     1  UNL111      0.0253
     13 C         122.9901  153.7071  144.8129 C.3     1  UNL111     -0.0213
     14 C         123.8370  153.3824  147.8281 C.3     1  UNL111     -0.0363
     15 C         121.8280  154.4067  145.4636 C.3     1  UNL111     -0.0422
     16 C         119.3479  151.0809  146.7664 C.3     1  UNL111      0.1112
     17 C         121.2183  151.0717  145.0771 C.2     1  UNL111     -0.0823
     18 C         119.9454  154.2163  146.9818 C.3     1  UNL111      0.1148
     19 C         119.9281  150.8721  145.3862 C.2     1  UNL111     -0.0495
     20 C         125.7375  153.1276  146.2237 C.3     1  UNL111     -0.0442
     21 C         121.3045  155.6202  145.0070 C.3     1  UNL111     -0.0561
     22 C         119.4146  155.4023  146.5262 C.3     1  UNL111      0.1321
     23 C         120.1122  156.1312  145.5568 C.3     1  UNL111     -0.0054
     24 C         117.0527  150.4924  146.5661 C.2     1  UNL111      0.2172
     25 C         115.6687  151.0837  146.4609 C.3     1  UNL111      0.0573
     26 C         117.1128  155.3348  146.3873 C.2     1  UNL111      0.2291
     27 C         114.6674  150.0756  145.9250 C.3     1  UNL111     -0.0381
     28 C         115.8656  155.8827  147.0432 C.3     1  UNL111      0.0596
     29 C         114.6007  155.3968  146.3581 C.3     1  UNL111     -0.0378
     30 H         124.6111  151.6564  147.0347 H       1  UNL111      0.1328
     31 H         122.5974  150.6754  146.5984 H       1  UNL111      0.0721
     32 H         123.9421  151.7441  144.7887 H       1  UNL111      0.0854
     33 H         120.2105  151.6328  148.6619 H       1  UNL111      0.1477
     34 H         122.7313  151.8323  148.8258 H       1  UNL111      0.0545
     35 H         122.0721  153.4449  149.0429 H       1  UNL111      0.0545
     36 H         122.6796  153.4613  143.7886 H       1  UNL111      0.0615
     37 H         123.8360  154.3951  144.7289 H       1  UNL111      0.0615
     38 H         123.7283  154.4240  147.5102 H       1  UNL111      0.0738
     39 H         124.5793  153.3438  148.6330 H       1  UNL111      0.0738
     40 H         119.4080  150.1083  147.2745 H       1  UNL111      0.1530
     41 H         121.5620  150.8240  144.0743 H       1  UNL111      0.0821
     42 H         119.2561  150.4682  144.6299 H       1  UNL111      0.0975
     43 H         125.6341  154.1791  145.9489 H       1  UNL111      0.0667
     44 H         126.0815  152.5267  145.3783 H       1  UNL111      0.0667
     45 H         126.4313  153.0199  147.0621 H       1  UNL111      0.0667
     46 H         121.7860  156.1668  144.1980 H       1  UNL111      0.0940
     47 H         119.7051  157.0695  145.1873 H       1  UNL111      0.1154
     48 H         115.7013  151.9429  145.7827 H       1  UNL111      0.0842
     49 H         115.3642  151.4266  147.4549 H       1  UNL111      0.0842
     50 H         114.9642  149.7194  144.9328 H       1  UNL111      0.0335
     51 H         113.6748  150.5291  145.8444 H       1  UNL111      0.0335
     52 H         114.5922  149.2039  146.5835 H       1  UNL111      0.0335
     53 H         115.9019  156.9764  146.9974 H       1  UNL111      0.0846
     54 H         115.8582  155.5667  148.0915 H       1  UNL111      0.0846
     55 H         114.5855  155.6939  145.3041 H       1  UNL111      0.0335
     56 H         113.7168  155.8194  146.8455 H       1  UNL111      0.0335
     57 H         114.5255  154.3053  146.3993 H       1  UNL111      0.0335
@<TRIPOS>UNITY_ATOM_ATTR
6 1
charge 1
@<TRIPOS>BOND
     1     1    10    1
     2     1    18    1
     3     2    16    1
     4     2    24    1
     5     3    22    1
     6     3    26    1
     7     4    24    2
     8     5    26    2
     9     6     9    1
    10     6    14    1
    11     6    20    1
    12     7     8    1
    13     7    10    1
    14     7    11    1
    15     7    12    1
    16     8     9    1
    17     8    17    1
    18     9    13    1
    19    10    16    1
    20    11    14    1
    21    12    15   ar
    22    12    18   ar
    23    13    15    1
    24    15    21   ar
    25    16    19    1
    26    17    19    2
    27    18    22   ar
    28    21    23   ar
    29    22    23   ar
    30    24    25    1
    31    25    27    1
    32    26    28    1
    33    28    29    1
    34     6    30    1
    35     8    31    1
    36     9    32    1
    37    10    33    1
    38    11    34    1
    39    11    35    1
    40    13    36    1
    41    13    37    1
    42    14    38    1
    43    14    39    1
    44    16    40    1
    45    17    41    1
    46    19    42    1
    47    20    43    1
    48    20    44    1
    49    20    45    1
    50    21    46    1
    51    23    47    1
    52    25    48    1
    53    25    49    1
    54    27    50    1
    55    27    51    1
    56    27    52    1
    57    28    53    1
    58    28    54    1
    59    29    55    1
    60    29    56    1
    61    29    57    1
@<TRIPOS>MOLECULE
118701639
 44 48 0 0 0
SMALL
GASTEIGER

@<TRIPOS>ATOM
      1 O         118.0776  153.0861  145.0853 O.3     1  UNL111     -0.5437
      2 O         116.8307  154.4791  146.9926 O.3     1  UNL111     -0.4467
      3 O         117.0647  150.4003  145.5954 O.3     1  UNL111     -0.5485
      4 N         123.1583  153.7152  145.9092 N.4     1  UNL111      0.4275
      5 C         120.2578  153.8874  145.7639 C.3     1  UNL111      0.0534
      6 C         121.0416  154.6509  146.8386 C.3     1  UNL111     -0.0025
      7 C         122.2889  153.7795  147.1899 C.3     1  UNL111     -0.0206
      8 C         118.7984  154.3137  145.4689 C.3     1  UNL111      0.0909
      9 C         121.1090  153.7838  144.4787 C.3     1  UNL111     -0.0258
     10 C         119.9556  152.5104  146.2510 C.ar    1  UNL111      0.0232
     11 C         121.9374  152.3627  147.7423 C.3     1  UNL111     -0.0213
     12 C         122.4623  153.1120  144.7092 C.3     1  UNL111     -0.0364
     13 C         118.0774  155.0750  146.6312 C.3     1  UNL111      0.0611
     14 C         120.7302  151.7394  147.0996 C.ar    1  UNL111     -0.0425
     15 C         120.1923  155.0272  148.0186 C.2     1  UNL111     -0.0867
     16 C         118.7287  152.1004  145.7803 C.ar    1  UNL111      0.1050
     17 C         118.8681  155.2076  147.9082 C.2     1  UNL111     -0.0662
     18 C         124.5192  153.1052  146.1275 C.3     1  UNL111     -0.0442
     19 C         120.2656  150.4546  147.3933 C.ar    1  UNL111     -0.0573
     20 C         118.2660  150.8361  146.0545 C.ar    1  UNL111      0.0917
     21 C         119.0451  149.9983  146.8522 C.ar    1  UNL111     -0.0140
     22 C         115.7503  154.9038  146.1704 C.3     1  UNL111      0.0016
     23 H         116.6333  151.1688  145.1768 H       1  UNL111      0.3393
     24 H         123.3565  154.6941  145.6607 H       1  UNL111      0.1328
     25 H         121.3995  155.6033  146.4204 H       1  UNL111      0.0720
     26 H         122.9133  154.3052  147.9231 H       1  UNL111      0.0854
     27 H         118.7732  154.9677  144.5875 H       1  UNL111      0.1419
     28 H         121.2755  154.7942  144.0822 H       1  UNL111      0.0544
     29 H         120.5791  153.2318  143.6915 H       1  UNL111      0.0544
     30 H         121.7088  152.4734  148.8105 H       1  UNL111      0.0615
     31 H         122.7894  151.6807  147.6718 H       1  UNL111      0.0615
     32 H         122.3735  152.0339  144.8752 H       1  UNL111      0.0738
     33 H         123.1154  153.2738  143.8445 H       1  UNL111      0.0738
     34 H         117.8964  156.1076  146.3003 H       1  UNL111      0.1236
     35 H         120.6638  155.2003  148.9847 H       1  UNL111      0.0812
     36 H         118.2979  155.5070  148.7874 H       1  UNL111      0.0911
     37 H         124.4148  152.0254  146.2516 H       1  UNL111      0.0667
     38 H         124.9629  153.5673  147.0127 H       1  UNL111      0.0667
     39 H         125.1276  153.3296  145.2470 H       1  UNL111      0.0667
     40 H         120.8179  149.7993  148.0644 H       1  UNL111      0.0939
     41 H         118.6830  149.0009  147.0926 H       1  UNL111      0.1139
     42 H         114.8535  154.3568  146.4728 H       1  UNL111      0.0826
     43 H         115.9492  154.6937  145.1157 H       1  UNL111      0.0826
     44 H         115.5677  155.9737  146.3100 H       1  UNL111      0.0826
@<TRIPOS>UNITY_ATOM_ATTR
4 1
charge 1
@<TRIPOS>BOND
     1     1     8    1
     2     1    16    1
     3     2    13    1
     4     2    22    1
     5     3    20    1
     6     4     7    1
     7     4    12    1
     8     4    18    1
     9     5     6    1
    10     5     8    1
    11     5     9    1
    12     5    10    1
    13     6     7    1
    14     6    15    1
    15     7    11    1
    16     8    13    1
    17     9    12    1
    18    10    14   ar
    19    10    16   ar
    20    11    14    1
    21    13    17    1
    22    14    19   ar
    23    15    17    2
    24    16    20   ar
    25    19    21   ar
    26    20    21   ar
    27     3    23    1
    28     4    24    1
    29     6    25    1
    30     7    26    1
    31     8    27    1
    32     9    28    1
    33     9    29    1
    34    11    30    1
    35    11    31    1
    36    12    32    1
    37    12    33    1
    38    13    34    1
    39    15    35    1
    40    17    36    1
    41    18    37    1
    42    18    38    1
    43    18    39    1
    44    19    40    1
    45    21    41    1
    46    22    42    1
    47    22    43    1
    48    22    44    1
@<TRIPOS>MOLECULE
10097229
 69 75 0 0 0
SMALL
GASTEIGER

@<TRIPOS>ATOM
      1 O         120.8329  154.2366  145.8682 O.2     1  UNL111     -0.5430
      2 O         121.7640  156.2637  147.2553 O.3     1  UNL111     -0.4348
      3 O         118.9430  153.1901  147.8842 O.3     1  UNL111     -0.4514
      4 O         118.6121  151.6634  146.1596 O.2     1  UNL111     -0.3279
      5 N         125.0070  151.2711  145.2596 N.4     1  UNL111      0.4275
      6 C         123.0863  153.4305  145.5763 C.3     1  UNL111      0.0533
      7 C         124.5818  153.6662  145.8048 C.3     1  UNL111     -0.0026
      8 C         125.1575  152.3348  146.3795 C.3     1  UNL111     -0.0206
      9 C         122.1672  154.6557  145.4014 C.3     1  UNL111      0.0903
     10 C         122.9128  152.3848  144.4497 C.3     1  UNL111     -0.0259
     11 C         122.4314  152.9000  146.8044 C.3     1  UNL111      0.0244
     12 C         124.4998  151.8868  147.7226 C.3     1  UNL111     -0.0213
     13 C         123.5875  151.0512  144.7745 C.3     1  UNL111     -0.0364
     14 C         123.0157  152.1153  147.7815 C.3     1  UNL111     -0.0423
     15 C         122.6213  155.9433  146.1628 C.3     1  UNL111      0.0605
     16 C         124.8805  154.8943  146.6124 C.2     1  UNL111     -0.0869
     17 C         121.1174  153.3152  146.8496 C.3     1  UNL111      0.1139
     18 C         124.0053  155.9016  146.7438 C.2     1  UNL111     -0.0672
     19 C         122.1891  151.6723  148.8168 C.3     1  UNL111     -0.0561
     20 C         125.6947  149.9655  145.5641 C.3     1  UNL111     -0.0442
     21 C         120.2827  152.8352  147.8309 C.3     1  UNL111      0.1331
     22 C         120.8203  152.0160  148.8312 C.3     1  UNL111     -0.0053
     23 C         118.1627  152.4789  146.9615 C.2     1  UNL111      0.2548
     24 C         116.6664  152.9065  147.0912 C.3     1  UNL111      0.1197
     25 C         116.3503  152.8808  148.6176 C.3     1  UNL111     -0.0177
     26 C         115.7823  151.8909  146.3119 C.3     1  UNL111     -0.0309
     27 C         116.4229  154.3531  146.5749 C.3     1  UNL111     -0.0309
     28 C         115.6620  151.9850  144.9096 C.3     1  UNL111     -0.0725
     29 C         115.2129  155.0157  146.8638 C.3     1  UNL111     -0.0725
     30 C         115.1114  150.8279  146.9455 C.3     1  UNL111     -0.0725
     31 C         117.3540  155.0275  145.7627 C.3     1  UNL111     -0.0725
     32 C         114.8839  151.0806  144.1819 C.3     1  UNL111     -0.0845
     33 C         114.9660  156.3099  146.3994 C.3     1  UNL111     -0.0845
     34 C         114.3331  149.9232  146.2155 C.3     1  UNL111     -0.0845
     35 C         117.1054  156.3227  145.2991 C.3     1  UNL111     -0.0845
     36 C         114.2164  150.0516  144.8357 C.3     1  UNL111     -0.0866
     37 C         115.9151  156.9657  145.6229 C.3     1  UNL111     -0.0866
     38 H         120.8633  155.9792  147.0107 H       1  UNL111      0.2424
     39 H         125.5226  151.6483  144.4526 H       1  UNL111      0.1328
     40 H         125.0672  153.8504  144.8345 H       1  UNL111      0.0720
     41 H         126.2406  152.4316  146.5260 H       1  UNL111      0.0854
     42 H         122.0787  154.9031  144.3357 H       1  UNL111      0.1417
     43 H         123.3394  152.7866  143.5210 H       1  UNL111      0.0544
     44 H         121.8531  152.1927  144.2364 H       1  UNL111      0.0544
     45 H         124.9478  152.4849  148.5271 H       1  UNL111      0.0615
     46 H         124.7246  150.8400  147.9462 H       1  UNL111      0.0615
     47 H         123.0519  150.4855  145.5433 H       1  UNL111      0.0738
     48 H         123.6505  150.4309  143.8737 H       1  UNL111      0.0738
     49 H         122.5675  156.7881  145.4664 H       1  UNL111      0.1221
     50 H         125.8650  155.0008  147.0658 H       1  UNL111      0.0812
     51 H         124.2924  156.7792  147.3233 H       1  UNL111      0.0909
     52 H         122.5886  151.0696  149.6305 H       1  UNL111      0.0940
     53 H         125.1184  149.4220  146.3158 H       1  UNL111      0.0667
     54 H         126.7046  150.1857  145.9185 H       1  UNL111      0.0667
     55 H         125.7439  149.3918  144.6345 H       1  UNL111      0.0667
     56 H         120.1845  151.6601  149.6388 H       1  UNL111      0.1154
     57 H         116.7191  151.9609  149.0886 H       1  UNL111      0.0413
     58 H         115.2765  152.9482  148.8267 H       1  UNL111      0.0413
     59 H         116.8284  153.7166  149.1444 H       1  UNL111      0.0413
     60 H         116.1760  152.7695  144.3582 H       1  UNL111      0.0908
     61 H         114.4332  154.5250  147.4432 H       1  UNL111      0.0908
     62 H         115.1732  150.6716  148.0189 H       1  UNL111      0.0908
     63 H         118.2829  154.5556  145.4551 H       1  UNL111      0.0908
     64 H         114.8012  151.1828  143.1029 H       1  UNL111      0.0877
     65 H         114.0256  156.8011  146.6378 H       1  UNL111      0.0877
     66 H         113.8171  149.1151  146.7284 H       1  UNL111      0.0877
     67 H         117.8380  156.8271  144.6744 H       1  UNL111      0.0877
     68 H         113.6092  149.3491  144.2711 H       1  UNL111      0.0874
     69 H         115.7195  157.9710  145.2588 H       1  UNL111      0.0874
@<TRIPOS>UNITY_ATOM_ATTR
5 1
charge 1
@<TRIPOS>BOND
     1     1     9    1
     2     1    17    1
     3     2    15    1
     4     3    21    1
     5     3    23    1
     6     4    23    2
     7     5     8    1
     8     5    13    1
     9     5    20    1
    10     6     7    1
    11     6     9    1
    12     6    10    1
    13     6    11    1
    14     7     8    1
    15     7    16    1
    16     8    12    1
    17     9    15    1
    18    10    13    1
    19    11    14   ar
    20    11    17   ar
    21    12    14    1
    22    14    19   ar
    23    15    18    1
    24    16    18    2
    25    17    21   ar
    26    19    22   ar
    27    21    22   ar
    28    23    24    1
    29    24    25    1
    30    24    26    1
    31    24    27    1
    32    26    28   ar
    33    26    30   ar
    34    27    29   ar
    35    27    31   ar
    36    28    32   ar
    37    29    33   ar
    38    30    34   ar
    39    31    35   ar
    40    32    36   ar
    41    33    37   ar
    42    34    36   ar
    43    35    37   ar
    44     2    38    1
    45     5    39    1
    46     7    40    1
    47     8    41    1
    48     9    42    1
    49    10    43    1
    50    10    44    1
    51    12    45    1
    52    12    46    1
    53    13    47    1
    54    13    48    1
    55    15    49    1
    56    16    50    1
    57    18    51    1
    58    19    52    1
    59    20    53    1
    60    20    54    1
    61    20    55    1
    62    22    56    1
    63    25    57    1
    64    25    58    1
    65    25    59    1
    66    28    60    1
    67    29    61    1
    68    30    62    1
    69    31    63    1
    70    32    64    1
    71    33    65    1
    72    34    66    1
    73    35    67    1
    74    36    68    1
    75    37    69    1
@<TRIPOS>MOLECULE
50940757
 47 51 0 0 0
SMALL
GASTEIGER

@<TRIPOS>ATOM
      1 S         117.6064  157.1382  145.5224 S.3     1  UNL111     -0.0309
      2 S         117.3217  148.9149  146.1404 S.3     1  UNL111      0.0055
      3 O         118.7704  153.1157  145.7238 O.2     1  UNL111     -0.5395
      4 O         117.9140  155.8323  146.4555 O.3     1  UNL111     -0.2963
      5 O         117.7793  150.4840  146.2854 O.2     1  UNL111     -0.4142
      6 O         116.1576  157.1572  145.3900 O.co2   1  UNL111     -0.2368
      7 O         118.1715  158.2392  146.3004 O.2     1  UNL111     -0.3626
      8 O         118.3438  156.8602  144.2896 O.2     1  UNL111     -0.3626
      9 O         116.0301  148.9802  145.4624 O.co2   1  UNL111     -0.2184
     10 O         118.3782  148.2847  145.3447 O.2     1  UNL111     -0.3434
     11 O         117.2477  148.4248  147.5180 O.2     1  UNL111     -0.3434
     12 N         124.0009  153.7798  146.0268 N.4     1  UNL111      0.4275
     13 C         121.1016  153.8122  145.9481 C.3     1  UNL111      0.0554
     14 C         121.8786  154.6013  147.0284 C.3     1  UNL111     -0.0021
     15 C         123.1678  153.7904  147.3346 C.3     1  UNL111     -0.0206
     16 C         119.6559  154.2787  145.6375 C.3     1  UNL111      0.1020
     17 C         121.9272  153.6893  144.6552 C.3     1  UNL111     -0.0256
     18 C         120.8108  152.4665  146.5198 C.3     1  UNL111      0.0264
     19 C         122.9098  152.3524  147.8653 C.3     1  UNL111     -0.0213
     20 C         123.3067  153.0872  144.8733 C.3     1  UNL111     -0.0364
     21 C         119.2693  155.4697  146.5476 C.3     1  UNL111      0.1108
     22 C         121.6585  151.7205  147.3265 C.3     1  UNL111     -0.0419
     23 C         120.9891  154.9079  148.2192 C.2     1  UNL111     -0.0847
     24 C         119.5074  152.0956  146.2685 C.3     1  UNL111      0.1230
     25 C         119.7160  155.2755  147.9804 C.2     1  UNL111     -0.0540
     26 C         121.2162  150.4655  147.7315 C.3     1  UNL111     -0.0545
     27 C         125.4108  153.3017  146.2049 C.3     1  UNL111     -0.0442
     28 C         119.0553  150.8392  146.6316 C.3     1  UNL111      0.1585
     29 C         119.9350  150.0217  147.3608 C.3     1  UNL111      0.0032
     30 H         124.0825  154.7674  145.7481 H       1  UNL111      0.1328
     31 H         122.1891  155.5755  146.6218 H       1  UNL111      0.0720
     32 H         123.7871  154.3378  148.0559 H       1  UNL111      0.0854
     33 H         119.5708  154.6117  144.5962 H       1  UNL111      0.1442
     34 H         122.0441  154.6891  144.2155 H       1  UNL111      0.0544
     35 H         121.3997  153.0835  143.9069 H       1  UNL111      0.0544
     36 H         122.7848  152.4263  148.9540 H       1  UNL111      0.0615
     37 H         123.7636  151.6914  147.6913 H       1  UNL111      0.0615
     38 H         123.2756  152.0146  145.0873 H       1  UNL111      0.0738
     39 H         123.9298  153.2421  143.9854 H       1  UNL111      0.0738
     40 H         119.8852  156.3182  146.2096 H       1  UNL111      0.1409
     41 H         121.3520  154.8288  149.2389 H       1  UNL111      0.0814
     42 H         119.0170  155.5149  148.7760 H       1  UNL111      0.0935
     43 H         121.8241  149.8248  148.3649 H       1  UNL111      0.0942
     44 H         125.4115  152.2213  146.3627 H       1  UNL111      0.0667
     45 H         125.8462  153.8268  147.0588 H       1  UNL111      0.0667
     46 H         125.9651  153.5528  145.2964 H       1  UNL111      0.0667
     47 H         119.6191  149.0349  147.6946 H       1  UNL111      0.1174
@<TRIPOS>UNITY_ATOM_ATTR
6 1
charge -1
9 1
charge -1
12 1
charge 1
@<TRIPOS>BOND
     1     1     4    1
     2     1     6    1
     3     1     7    2
     4     1     8    2
     5     2     5    1
     6     2     9    1
     7     2    10    2
     8     2    11    2
     9     3    16    1
    10     3    24    1
    11     4    21    1
    12     5    28    1
    13    12    15    1
    14    12    20    1
    15    12    27    1
    16    13    14    1
    17    13    16    1
    18    13    17    1
    19    13    18    1
    20    14    15    1
    21    14    23    1
    22    15    19    1
    23    16    21    1
    24    17    20    1
    25    18    22   ar
    26    18    24   ar
    27    19    22    1
    28    21    25    1
    29    22    26   ar
    30    23    25    2
    31    24    28   ar
    32    26    29   ar
    33    28    29   ar
    34    12    30    1
    35    14    31    1
    36    15    32    1
    37    16    33    1
    38    17    34    1
    39    17    35    1
    40    19    36    1
    41    19    37    1
    42    20    38    1
    43    20    39    1
    44    21    40    1
    45    23    41    1
    46    25    42    1
    47    26    43    1
    48    27    44    1
    49    27    45    1
    50    27    46    1
    51    29    47    1
@<TRIPOS>MOLECULE
5479215
 41 45 0 0 0
SMALL
GASTEIGER

@<TRIPOS>ATOM
      1 O         121.8211  152.5838  147.6862 O.3     1  UNL111     -0.5439
      2 O         122.6597  150.6814  146.0615 O.3     1  UNL111     -0.4348
      3 O         123.4287  154.9444  147.1111 O.3     1  UNL111     -0.5485
      4 N         116.6991  153.1566  146.8587 N.4     1  UNL111      0.4275
      5 C         119.4788  152.3250  147.0717 C.3     1  UNL111      0.0532
      6 C         118.5535  151.7265  146.0017 C.3     1  UNL111     -0.0026
      7 C         117.5448  152.8483  145.5989 C.3     1  UNL111     -0.0206
      8 C         120.7843  151.5672  147.4177 C.3     1  UNL111      0.0902
      9 C         118.6607  152.6811  148.3317 C.3     1  UNL111     -0.0259
     10 C         120.1088  153.5657  146.5327 C.ar    1  UNL111      0.0232
     11 C         118.2212  154.1261  145.0120 C.3     1  UNL111     -0.0213
     12 C         117.5010  153.6349  148.0481 C.3     1  UNL111     -0.0364
     13 C         119.5427  154.4647  145.6452 C.ar    1  UNL111     -0.0425
     14 C         121.2687  150.5636  146.3290 C.3     1  UNL111      0.0605
     15 C         119.3167  151.1300  144.8502 C.2     1  UNL111     -0.0869
     16 C         121.4039  153.6825  146.9824 C.ar    1  UNL111      0.1050
     17 C         120.5457  150.6172  145.0139 C.2     1  UNL111     -0.0672
     18 C         115.5122  154.0475  146.5922 C.3     1  UNL111     -0.0442
     19 C         120.3043  155.5839  145.2977 C.ar    1  UNL111     -0.0573
     20 C         122.1575  154.7862  146.6612 C.ar    1  UNL111      0.0917
     21 C         121.6012  155.7530  145.8247 C.ar    1  UNL111     -0.0140
     22 H         122.9417  151.5689  146.3485 H       1  UNL111      0.2424
     23 H         123.6338  154.1854  147.6876 H       1  UNL111      0.3393
     24 H         116.2814  152.2582  147.1387 H       1  UNL111      0.1328
     25 H         117.9805  150.8955  146.4386 H       1  UNL111      0.0720
     26 H         116.8252  152.4554  144.8698 H       1  UNL111      0.0854
     27 H         120.6643  151.0074  148.3542 H       1  UNL111      0.1417
     28 H         119.2969  153.1306  149.1053 H       1  UNL111      0.0544
     29 H         118.2605  151.7552  148.7662 H       1  UNL111      0.0544
     30 H         117.5555  154.9925  145.0575 H       1  UNL111      0.0615
     31 H         118.4178  153.9340  143.9489 H       1  UNL111      0.0615
     32 H         116.8189  153.6648  148.9049 H       1  UNL111      0.0738
     33 H         117.8380  154.6555  147.8413 H       1  UNL111      0.0738
     34 H         121.1170  149.5487  146.7171 H       1  UNL111      0.1221
     35 H         118.8483  151.0645  143.8695 H       1  UNL111      0.0812
     36 H         121.0522  150.1545  144.1672 H       1  UNL111      0.0909
     37 H         115.8583  155.0702  146.4293 H       1  UNL111      0.0667
     38 H         114.8605  154.0018  147.4691 H       1  UNL111      0.0667
     39 H         114.9845  153.6610  145.7170 H       1  UNL111      0.0667
     40 H         119.9242  156.3237  144.5953 H       1  UNL111      0.0939
     41 H         122.1919  156.6233  145.5454 H       1  UNL111      0.1139
@<TRIPOS>UNITY_ATOM_ATTR
4 1
charge 1
@<TRIPOS>BOND
     1     1     8    1
     2     1    16    1
     3     2    14    1
     4     3    20    1
     5     4     7    1
     6     4    12    1
     7     4    18    1
     8     5     6    1
     9     5     8    1
    10     5     9    1
    11     5    10    1
    12     6     7    1
    13     6    15    1
    14     7    11    1
    15     8    14    1
    16     9    12    1
    17    10    13   ar
    18    10    16   ar
    19    11    13    1
    20    13    19   ar
    21    14    17    1
    22    15    17    2
    23    16    20   ar
    24    19    21   ar
    25    20    21   ar
    26     2    22    1
    27     3    23    1
    28     4    24    1
    29     6    25    1
    30     7    26    1
    31     8    27    1
    32     9    28    1
    33     9    29    1
    34    11    30    1
    35    11    31    1
    36    12    32    1
    37    12    33    1
    38    14    34    1
    39    15    35    1
    40    17    36    1
    41    18    37    1
    42    18    38    1
    43    18    39    1
    44    19    40    1
    45    21    41    1
@<TRIPOS>MOLECULE
44153487
 60 65 0 0 0
SMALL
GASTEIGER

@<TRIPOS>ATOM
      1 O         119.2997  154.4215  145.7570 O.2     1  UNL111     -0.5434
      2 O         121.0586  153.6366  147.7438 O.3     1  UNL111     -0.3935
      3 O         118.3342  157.1227  146.1229 O.2     1  UNL111     -0.5485
      4 O         122.6228  152.4685  146.4536 O.3     1  UNL111     -0.3865
      5 O         122.8066  155.8972  147.7765 O.3     1  UNL111     -0.4257
      6 O         124.0718  155.5081  145.3873 O.3     1  UNL111     -0.4316
      7 O         125.9339  153.3386  145.0541 O.3     1  UNL111     -0.4315
      8 O         122.8784  150.4061  144.6474 O.co2   1  UNL111     -0.5546
      9 O         125.1347  150.7832  144.8057 O.co2   1  UNL111     -0.5546
     10 N         115.6667  150.6706  145.4475 N.4     1  UNL111      0.4275
     11 C         117.9393  152.4084  145.9246 C.3     1  UNL111      0.0537
     12 C         117.5289  151.3503  146.9643 C.3     1  UNL111     -0.0025
     13 C         119.3803  152.9704  146.0038 C.3     1  UNL111      0.0935
     14 C         115.9797  151.2058  146.8647 C.3     1  UNL111     -0.0206
     15 C         117.5897  151.9397  144.4993 C.3     1  UNL111     -0.0258
     16 C         117.1986  153.6686  146.2388 C.3     1  UNL111      0.0233
     17 C         115.2019  152.5217  147.1830 C.3     1  UNL111     -0.0213
     18 C         116.1187  151.5809  144.3285 C.3     1  UNL111     -0.0364
     19 C         120.1119  152.6410  147.3386 C.3     1  UNL111      0.0768
     20 C         115.9178  153.7746  146.7571 C.3     1  UNL111     -0.0425
     21 C         118.0281  151.7040  148.3467 C.2     1  UNL111     -0.0864
     22 C         118.0167  154.7597  146.0743 C.3     1  UNL111      0.1050
     23 C         119.1985  152.3446  148.5045 C.2     1  UNL111     -0.0634
     24 C         114.2439  150.2207  145.2644 C.3     1  UNL111     -0.0442
     25 C         115.4240  155.0625  146.9897 C.3     1  UNL111     -0.0573
     26 C         117.5428  156.0315  146.2930 C.3     1  UNL111      0.0917
     27 C         116.2311  156.1899  146.7354 C.3     1  UNL111     -0.0140
     28 C         122.1414  153.7507  146.7992 C.3     1  UNL111      0.1188
     29 C         123.2692  154.5714  147.4511 C.3     1  UNL111      0.0885
     30 C         124.4597  154.6549  146.4856 C.3     1  UNL111      0.0765
     31 C         124.8625  153.2459  145.9948 C.3     1  UNL111      0.0783
     32 C         123.6340  152.5310  145.4228 C.3     1  UNL111      0.1059
     33 C         123.9128  151.0914  144.9222 C.2     1  UNL111      0.0691
     34 H         119.2151  156.7870  145.8641 H       1  UNL111      0.3393
     35 H         121.9618  155.7546  148.2473 H       1  UNL111      0.2441
     36 H         123.7988  156.3446  145.8101 H       1  UNL111      0.2418
     37 H         126.0580  152.4042  144.7499 H       1  UNL111      0.2419
     38 H         116.2288  149.8122  145.3483 H       1  UNL111      0.1328
     39 H         117.9824  150.3821  146.7075 H       1  UNL111      0.0720
     40 H         119.9934  152.5709  145.1852 H       1  UNL111      0.1422
     41 H         115.6378  150.4142  147.5432 H       1  UNL111      0.0854
     42 H         118.1993  151.0591  144.2567 H       1  UNL111      0.0544
     43 H         117.8472  152.7056  143.7560 H       1  UNL111      0.0544
     44 H         115.0886  152.5762  148.2741 H       1  UNL111      0.0615
     45 H         114.1928  152.5110  146.7621 H       1  UNL111      0.0615
     46 H         115.4677  152.4609  144.3242 H       1  UNL111      0.0738
     47 H         115.9672  151.0376  143.3892 H       1  UNL111      0.0738
     48 H         120.6375  151.6853  147.2023 H       1  UNL111      0.1271
     49 H         117.4581  151.4152  149.2262 H       1  UNL111      0.0812
     50 H         119.5789  152.5628  149.4994 H       1  UNL111      0.0915
     51 H         113.5915  151.0954  145.2172 H       1  UNL111      0.0667
     52 H         113.9777  149.5737  146.1038 H       1  UNL111      0.0667
     53 H         114.1893  149.6569  144.3293 H       1  UNL111      0.0667
     54 H         114.4314  155.2133  147.4089 H       1  UNL111      0.0939
     55 H         115.8512  157.1896  146.9325 H       1  UNL111      0.1139
     56 H         121.7625  154.2737  145.9139 H       1  UNL111      0.1708
     57 H         123.5843  154.0943  148.3867 H       1  UNL111      0.1333
     58 H         125.3138  155.1519  146.9593 H       1  UNL111      0.1245
     59 H         125.2392  152.6873  146.8619 H       1  UNL111      0.1247
     60 H         123.2389  153.0690  144.5503 H       1  UNL111      0.1358
@<TRIPOS>UNITY_ATOM_ATTR
8 1
charge -1
10 1
charge 1
@<TRIPOS>BOND
     1     1    13    1
     2     1    22    1
     3     2    19    1
     4     2    28    1
     5     3    26    1
     6     4    28    1
     7     4    32    1
     8     5    29    1
     9     6    30    1
    10     7    31    1
    11     8    33   ar
    12     9    33   ar
    13    10    14    1
    14    10    18    1
    15    10    24    1
    16    11    12    1
    17    11    13    1
    18    11    15    1
    19    11    16    1
    20    12    14    1
    21    12    21    1
    22    13    19    1
    23    14    17    1
    24    15    18    1
    25    16    20   ar
    26    16    22   ar
    27    17    20    1
    28    19    23    1
    29    20    25   ar
    30    21    23    2
    31    22    26   ar
    32    25    27   ar
    33    26    27   ar
    34    28    29    1
    35    29    30    1
    36    30    31    1
    37    31    32    1
    38    32    33    1
    39     3    34    1
    40     5    35    1
    41     6    36    1
    42     7    37    1
    43    10    38    1
    44    12    39    1
    45    13    40    1
    46    14    41    1
    47    15    42    1
    48    15    43    1
    49    17    44    1
    50    17    45    1
    51    18    46    1
    52    18    47    1
    53    19    48    1
    54    21    49    1
    55    23    50    1
    56    24    51    1
    57    24    52    1
    58    24    53    1
    59    25    54    1
    60    27    55    1
    61    28    56    1
    62    29    57    1
    63    30    58    1
    64    31    59    1
    65    32    60    1
@<TRIPOS>MOLECULE
281723
 44 48 0 0 0
SMALL
GASTEIGER

@<TRIPOS>ATOM
      1 O         121.4114  154.2407  147.6317 O.3     1  UNL111     -0.5437
      2 O         119.7694  156.9113  146.3466 O.3     1  UNL111     -0.4467
      3 O         124.0252  153.0248  147.1639 O.3     1  UNL111     -0.5485
      4 N         117.4210  151.0357  146.8289 N.4     1  UNL111      0.4275
      5 C         119.3068  153.2699  146.9510 C.3     1  UNL111      0.0534
      6 C         118.2031  153.2467  145.8876 C.3     1  UNL111     -0.0025
      7 C         117.9397  151.7476  145.5529 C.3     1  UNL111     -0.0206
      8 C         120.0345  154.6063  147.2199 C.3     1  UNL111      0.0909
      9 C         118.7753  152.6201  148.2477 C.3     1  UNL111     -0.0258
     10 C         120.4910  152.5005  146.4737 C.ar    1  UNL111      0.0232
     11 C         119.1868  150.9876  144.9958 C.3     1  UNL111     -0.0213
     12 C         118.3151  151.1778  148.0441 C.3     1  UNL111     -0.0364
     13 C         120.1165  155.5650  145.9890 C.3     1  UNL111      0.0611
     14 C         120.4845  151.4035  145.6306 C.ar    1  UNL111     -0.0425
     15 C         118.5112  154.1045  144.6910 C.2     1  UNL111     -0.0867
     16 C         121.6485  153.0715  146.9542 C.ar    1  UNL111      0.1050
     17 C         119.3610  155.1402  144.7539 C.2     1  UNL111     -0.0662
     18 C         115.9752  151.3394  147.1360 C.3     1  UNL111     -0.0442
     19 C         121.7200  150.8164  145.3467 C.ar    1  UNL111     -0.0573
     20 C         122.8673  152.4951  146.6937 C.ar    1  UNL111      0.0917
     21 C         122.9056  151.3514  145.8956 C.ar    1  UNL111     -0.0140
     22 C         118.3949  157.1653  146.6032 C.3     1  UNL111      0.0016
     23 H         123.7922  153.8387  147.6494 H       1  UNL111      0.3393
     24 H         117.4255  150.0295  146.6090 H       1  UNL111      0.1328
     25 H         117.2860  153.6787  146.3098 H       1  UNL111      0.0720
     26 H         117.1294  151.6482  144.8203 H       1  UNL111      0.0854
     27 H         119.5983  155.1246  148.0810 H       1  UNL111      0.1419
     28 H         117.9382  153.2182  148.6309 H       1  UNL111      0.0544
     29 H         119.5375  152.6283  149.0379 H       1  UNL111      0.0544
     30 H         119.2637  151.2076  143.9233 H       1  UNL111      0.0615
     31 H         119.0516  149.9045  145.0979 H       1  UNL111      0.0615
     32 H         119.1596  150.4973  147.8953 H       1  UNL111      0.0738
     33 H         117.7593  150.8122  148.9145 H       1  UNL111      0.0738
     34 H         121.1698  155.6319  145.6879 H       1  UNL111      0.1236
     35 H         117.9892  153.9153  143.7541 H       1  UNL111      0.0812
     36 H         119.5326  155.7497  143.8672 H       1  UNL111      0.0911
     37 H         115.8870  152.3760  147.4669 H       1  UNL111      0.0667
     38 H         115.6490  150.6544  147.9232 H       1  UNL111      0.0667
     39 H         115.3900  151.1631  146.2300 H       1  UNL111      0.0667
     40 H         121.7924  149.9575  144.6818 H       1  UNL111      0.0939
     41 H         123.8653  150.8928  145.6652 H       1  UNL111      0.1139
     42 H         118.3091  158.1733  147.0187 H       1  UNL111      0.0826
     43 H         117.9786  156.4595  147.3267 H       1  UNL111      0.0826
     44 H         117.8160  157.1351  145.6758 H       1  UNL111      0.0826
@<TRIPOS>UNITY_ATOM_ATTR
4 1
charge 1
@<TRIPOS>BOND
     1     1     8    1
     2     1    16    1
     3     2    13    1
     4     2    22    1
     5     3    20    1
     6     4     7    1
     7     4    12    1
     8     4    18    1
     9     5     6    1
    10     5     8    1
    11     5     9    1
    12     5    10    1
    13     6     7    1
    14     6    15    1
    15     7    11    1
    16     8    13    1
    17     9    12    1
    18    10    14   ar
    19    10    16   ar
    20    11    14    1
    21    13    17    1
    22    14    19   ar
    23    15    17    2
    24    16    20   ar
    25    19    21   ar
    26    20    21   ar
    27     3    23    1
    28     4    24    1
    29     6    25    1
    30     7    26    1
    31     8    27    1
    32     9    28    1
    33     9    29    1
    34    11    30    1
    35    11    31    1
    36    12    32    1
    37    12    33    1
    38    13    34    1
    39    15    35    1
    40    17    36    1
    41    18    37    1
    42    18    38    1
    43    18    39    1
    44    19    40    1
    45    21    41    1
    46    22    42    1
    47    22    43    1
    48    22    44    1
@<TRIPOS>MOLECULE
6428288
 54 58 0 0 0
SMALL
GASTEIGER

@<TRIPOS>ATOM
      1 O         119.1771  153.0676  147.8400 O.2     1  UNL111     -0.5385
      2 O         118.0715  151.1376  146.4524 O.3     1  UNL111     -0.5034
      3 O         117.6609  155.4481  147.0504 O.3     1  UNL111     -0.4563
      4 O         117.5657  148.9279  146.7980 O.2     1  UNL111     -0.3412
      5 O         116.7851  154.0201  145.4167 O.2     1  UNL111     -0.3367
      6 N         124.2552  153.1076  146.7045 N.4     1  UNL111      0.4275
      7 C         121.4320  152.5492  147.1206 C.3     1  UNL111      0.0569
      8 C         122.2460  151.7766  146.0728 C.3     1  UNL111     -0.0012
      9 C         123.3207  152.7632  145.5198 C.3     1  UNL111     -0.0204
     10 C         120.0912  151.9401  147.5991 C.3     1  UNL111      0.1047
     11 C         122.3413  152.9527  148.3013 C.3     1  UNL111     -0.0252
     12 C         120.8726  153.7817  146.4898 C.3     1  UNL111      0.0253
     13 C         122.7236  154.0377  144.8455 C.3     1  UNL111     -0.0213
     14 C         123.5600  153.7682  147.8731 C.3     1  UNL111     -0.0363
     15 C         121.4622  154.5414  145.4923 C.3     1  UNL111     -0.0422
     16 C         119.4695  150.8738  146.6436 C.3     1  UNL111      0.1110
     17 C         121.3765  151.1513  145.0172 C.2     1  UNL111     -0.0823
     18 C         119.6106  154.0390  146.9784 C.3     1  UNL111      0.1148
     19 C         120.1214  150.7615  145.2860 C.2     1  UNL111     -0.0495
     20 C         125.5020  153.8515  146.3007 C.3     1  UNL111     -0.0442
     21 C         120.7731  155.6786  145.0604 C.3     1  UNL111     -0.0561
     22 C         118.9189  155.1488  146.5480 C.3     1  UNL111      0.1321
     23 C         119.5138  155.9968  145.6070 C.3     1  UNL111     -0.0054
     24 C         117.2283  150.0796  146.5642 C.2     1  UNL111      0.2147
     25 C         116.6493  154.7644  146.3790 C.2     1  UNL111      0.2291
     26 C         115.8142  150.5212  146.3474 C.3     1  UNL111      0.0550
     27 C         115.3328  155.1125  147.0358 C.3     1  UNL111      0.0596
     28 C         114.1511  154.5042  146.3015 C.3     1  UNL111     -0.0378
     29 H         124.6030  152.2037  147.0541 H       1  UNL111      0.1328
     30 H         122.7691  150.9408  146.5603 H       1  UNL111      0.0721
     31 H         123.9647  152.2439  144.7991 H       1  UNL111      0.0854
     32 H         120.2264  151.4578  148.5762 H       1  UNL111      0.1477
     33 H         122.6851  152.0416  148.8090 H       1  UNL111      0.0545
     34 H         121.7861  153.5294  149.0526 H       1  UNL111      0.0545
     35 H         122.4658  153.7708  143.8120 H       1  UNL111      0.0615
     36 H         123.4582  154.8458  144.7882 H       1  UNL111      0.0615
     37 H         123.2998  154.7899  147.5792 H       1  UNL111      0.0738
     38 H         124.2860  153.8201  148.6919 H       1  UNL111      0.0738
     39 H         119.6214  149.9005  147.1293 H       1  UNL111      0.1530
     40 H         121.7810  150.9669  144.0235 H       1  UNL111      0.0821
     41 H         119.5355  150.2749  144.5072 H       1  UNL111      0.0975
     42 H         125.2421  154.8818  146.0496 H       1  UNL111      0.0667
     43 H         125.9476  153.3338  145.4477 H       1  UNL111      0.0667
     44 H         126.1908  153.8289  147.1496 H       1  UNL111      0.0667
     45 H         121.1793  156.3124  144.2739 H       1  UNL111      0.0940
     46 H         118.9798  156.8774  145.2574 H       1  UNL111      0.1154
     47 H         115.5625  151.3161  147.0539 H       1  UNL111      0.0793
     48 H         115.1409  149.6775  146.5247 H       1  UNL111      0.0793
     49 H         115.6865  150.8644  145.3181 H       1  UNL111      0.0793
     50 H         115.2267  156.2026  147.0445 H       1  UNL111      0.0846
     51 H         115.3528  154.7449  148.0669 H       1  UNL111      0.0846
     52 H         114.1116  154.8522  145.2640 H       1  UNL111      0.0335
     53 H         113.2133  154.7822  146.7921 H       1  UNL111      0.0335
     54 H         114.2175  153.4116  146.2849 H       1  UNL111      0.0335
@<TRIPOS>UNITY_ATOM_ATTR
6 1
charge 1
@<TRIPOS>BOND
     1     1    10    1
     2     1    18    1
     3     2    16    1
     4     2    24    1
     5     3    22    1
     6     3    25    1
     7     4    24    2
     8     5    25    2
     9     6     9    1
    10     6    14    1
    11     6    20    1
    12     7     8    1
    13     7    10    1
    14     7    11    1
    15     7    12    1
    16     8     9    1
    17     8    17    1
    18     9    13    1
    19    10    16    1
    20    11    14    1
    21    12    15   ar
    22    12    18   ar
    23    13    15    1
    24    15    21   ar
    25    16    19    1
    26    17    19    2
    27    18    22   ar
    28    21    23   ar
    29    22    23   ar
    30    24    26    1
    31    25    27    1
    32    27    28    1
    33     6    29    1
    34     8    30    1
    35     9    31    1
    36    10    32    1
    37    11    33    1
    38    11    34    1
    39    13    35    1
    40    13    36    1
    41    14    37    1
    42    14    38    1
    43    16    39    1
    44    17    40    1
    45    19    41    1
    46    20    42    1
    47    20    43    1
    48    20    44    1
    49    21    45    1
    50    23    46    1
    51    26    47    1
    52    26    48    1
    53    26    49    1
    54    27    50    1
    55    27    51    1
    56    28    52    1
    57    28    53    1
    58    28    54    1
@<TRIPOS>MOLECULE
15764785
 66 71 0 0 0
SMALL
GASTEIGER

@<TRIPOS>ATOM
      1 O         120.5197  152.3054  145.4218 O.2     1  UNL111     -0.5432
      2 O         118.7374  152.9189  147.3403 O.3     1  UNL111     -0.3935
      3 O         121.2628  149.6433  145.9353 O.2     1  UNL111     -0.5661
      4 O         116.8422  154.0065  146.5418 O.3     1  UNL111     -0.3865
      5 O         117.4279  150.4032  146.9599 O.3     1  UNL111     -0.4257
      6 O         114.5791  150.5589  146.6897 O.3     1  UNL111     -0.4316
      7 O         113.7415  152.7144  144.9799 O.3     1  UNL111     -0.4315
      8 O         115.7375  156.2855  144.9554 O.co2   1  UNL111     -0.5546
      9 O         114.1843  155.6526  146.5131 O.co2   1  UNL111     -0.5546
     10 N         124.2182  155.9582  145.5241 N.4     1  UNL111      0.4275
     11 C         121.8650  154.2826  145.7791 C.3     1  UNL111      0.0537
     12 C         122.1684  155.3765  146.8161 C.3     1  UNL111     -0.0025
     13 C         120.4194  153.7433  145.7055 C.3     1  UNL111      0.0936
     14 C         123.7190  155.4842  146.9095 C.3     1  UNL111     -0.0206
     15 C         122.3955  154.6912  144.3905 C.3     1  UNL111     -0.0258
     16 C         122.5339  153.0179  146.2150 C.3     1  UNL111      0.0235
     17 C         124.4144  154.1648  147.3727 C.3     1  UNL111     -0.0213
     18 C         123.8852  155.0154  144.3906 C.3     1  UNL111     -0.0364
     19 C         119.5572  154.0300  146.9703 C.3     1  UNL111      0.0768
     20 C         123.7301  152.9111  146.9004 C.3     1  UNL111     -0.0425
     21 C         121.4984  155.1090  148.1389 C.2     1  UNL111     -0.0864
     22 C         121.7293  151.9302  145.9476 C.3     1  UNL111      0.1064
     23 C         120.3248  154.4613  148.1961 C.2     1  UNL111     -0.0634
     24 C         124.1585  151.6237  147.2264 C.3     1  UNL111     -0.0570
     25 C         125.6625  156.3744  145.5051 C.3     1  UNL111     -0.0442
     26 C         122.1276  150.6440  146.2596 C.3     1  UNL111      0.0937
     27 C         123.3706  150.4984  146.8910 C.3     1  UNL111     -0.0127
     28 C         117.5850  152.8108  146.4889 C.3     1  UNL111      0.1188
     29 C         116.7205  151.6586  147.0086 C.3     1  UNL111      0.0885
     30 C         115.4639  151.5586  146.1471 C.3     1  UNL111      0.0765
     31 C         114.7257  152.9037  146.0102 C.3     1  UNL111      0.0783
     32 C         115.7110  154.0146  145.6384 C.3     1  UNL111      0.1059
     33 C         121.5392  148.3441  146.4509 C.3     1  UNL111      0.0338
     34 C         115.1249  155.4507  145.6949 C.2     1  UNL111      0.0691
     35 C         120.3852  147.4350  146.0684 C.3     1  UNL111     -0.0340
     36 H         118.3397  150.6163  147.2450 H       1  UNL111      0.2441
     37 H         115.1594  149.7970  146.8839 H       1  UNL111      0.2418
     38 H         113.1161  152.0659  145.3536 H       1  UNL111      0.2419
     39 H         123.6951  156.8242  145.3286 H       1  UNL111      0.1328
     40 H         121.7753  156.3402  146.4614 H       1  UNL111      0.0720
     41 H         119.8921  154.1778  144.8460 H       1  UNL111      0.1422
     42 H         123.9939  156.2946  147.5963 H       1  UNL111      0.0854
     43 H         121.8404  155.5735  144.0452 H       1  UNL111      0.0544
     44 H         122.2126  153.9043  143.6472 H       1  UNL111      0.0544
     45 H         124.3850  154.1491  148.4704 H       1  UNL111      0.0615
     46 H         125.4693  154.1406  147.0854 H       1  UNL111      0.0615
     47 H         124.5112  154.1238  144.4967 H       1  UNL111      0.0738
     48 H         124.1624  155.5207  143.4588 H       1  UNL111      0.0738
     49 H         118.9322  154.9057  146.7484 H       1  UNL111      0.1271
     50 H         121.9392  155.4805  149.0610 H       1  UNL111      0.0812
     51 H         119.8241  154.3188  149.1520 H       1  UNL111      0.0915
     52 H         125.0847  151.4687  147.7767 H       1  UNL111      0.0939
     53 H         126.2951  155.4869  145.5733 H       1  UNL111      0.0667
     54 H         125.8357  157.0503  146.3462 H       1  UNL111      0.0667
     55 H         125.8459  156.8996  144.5638 H       1  UNL111      0.0667
     56 H         123.7439  149.5174  147.1715 H       1  UNL111      0.1142
     57 H         117.9233  152.6046  145.4659 H       1  UNL111      0.1708
     58 H         116.4481  151.8191  148.0586 H       1  UNL111      0.1333
     59 H         115.7318  151.1861  145.1492 H       1  UNL111      0.1245
     60 H         114.1966  153.1294  146.9437 H       1  UNL111      0.1247
     61 H         116.0764  153.8602  144.6135 H       1  UNL111      0.1358
     62 H         121.6247  148.3754  147.5435 H       1  UNL111      0.1121
     63 H         122.4646  147.9531  146.0131 H       1  UNL111      0.1121
     64 H         119.4429  147.8156  146.4765 H       1  UNL111      0.0424
     65 H         120.5478  146.4200  146.4415 H       1  UNL111      0.0424
     66 H         120.2688  147.3974  144.9802 H       1  UNL111      0.0424
@<TRIPOS>UNITY_ATOM_ATTR
8 1
charge -1
10 1
charge 1
@<TRIPOS>BOND
     1     1    13    1
     2     1    22    1
     3     2    19    1
     4     2    28    1
     5     3    26    1
     6     3    33    1
     7     4    28    1
     8     4    32    1
     9     5    29    1
    10     6    30    1
    11     7    31    1
    12     8    34   ar
    13     9    34   ar
    14    10    14    1
    15    10    18    1
    16    10    25    1
    17    11    12    1
    18    11    13    1
    19    11    15    1
    20    11    16    1
    21    12    14    1
    22    12    21    1
    23    13    19    1
    24    14    17    1
    25    15    18    1
    26    16    20   ar
    27    16    22   ar
    28    17    20    1
    29    19    23    1
    30    20    24   ar
    31    21    23    2
    32    22    26   ar
    33    24    27   ar
    34    26    27   ar
    35    28    29    1
    36    29    30    1
    37    30    31    1
    38    31    32    1
    39    32    34    1
    40    33    35    1
    41     5    36    1
    42     6    37    1
    43     7    38    1
    44    10    39    1
    45    12    40    1
    46    13    41    1
    47    14    42    1
    48    15    43    1
    49    15    44    1
    50    17    45    1
    51    17    46    1
    52    18    47    1
    53    18    48    1
    54    19    49    1
    55    21    50    1
    56    23    51    1
    57    24    52    1
    58    25    53    1
    59    25    54    1
    60    25    55    1
    61    27    56    1
    62    28    57    1
    63    29    58    1
    64    30    59    1
    65    31    60    1
    66    32    61    1
    67    33    62    1
    68    33    63    1
    69    35    64    1
    70    35    65    1
    71    35    66    1
@<TRIPOS>MOLECULE
23253564
 41 45 0 0 0
SMALL
GASTEIGER

@<TRIPOS>ATOM
      1 O         121.8278  153.5829  147.6867 O.3     1  UNL111     -0.5439
      2 O         122.6923  155.4658  146.0529 O.3     1  UNL111     -0.4348
      3 O         123.3991  151.1964  147.1188 O.3     1  UNL111     -0.5485
      4 N         116.6967  153.0832  146.8687 N.4     1  UNL111      0.4275
      5 C         119.4887  153.8742  147.0744 C.3     1  UNL111      0.0532
      6 C         118.5708  154.4822  146.0034 C.3     1  UNL111     -0.0026
      7 C         117.5450  153.3740  145.6065 C.3     1  UNL111     -0.0206
      8 C         120.8059  154.6138  147.4156 C.3     1  UNL111      0.0902
      9 C         118.6673  153.5353  148.3370 C.3     1  UNL111     -0.0259
     10 C         120.0994  152.6222  146.5394 C.ar    1  UNL111      0.0232
     11 C         117.4932  152.5977  148.0588 C.3     1  UNL111     -0.0364
     12 C         118.2015  152.0841  145.0236 C.3     1  UNL111     -0.0213
     13 C         119.5186  151.7282  145.6562 C.ar    1  UNL111     -0.0425
     14 C         121.3037  155.6057  146.3222 C.3     1  UNL111      0.0605
     15 C         119.3411  155.0629  144.8485 C.2     1  UNL111     -0.0869
     16 C         121.3933  152.4878  146.9878 C.ar    1  UNL111      0.1050
     17 C         120.5779  155.5579  145.0083 C.2     1  UNL111     -0.0672
     18 C         115.4964  152.2089  146.6074 C.3     1  UNL111     -0.0442
     19 C         120.2630  150.5965  145.3121 C.ar    1  UNL111     -0.0573
     20 C         122.1299  151.3717  146.6700 C.ar    1  UNL111      0.0917
     21 C         121.5580  150.4100  145.8380 C.ar    1  UNL111     -0.0140
     22 H         122.9611  154.5751  146.3423 H       1  UNL111      0.2424
     23 H         123.6163  151.9544  147.6920 H       1  UNL111      0.3393
     24 H         116.2928  153.9888  147.1457 H       1  UNL111      0.1328
     25 H         118.0109  155.3234  146.4379 H       1  UNL111      0.0720
     26 H         116.8302  153.7747  144.8769 H       1  UNL111      0.0854
     27 H         120.6956  155.1791  148.3500 H       1  UNL111      0.1417
     28 H         118.2816  154.4688  148.7684 H       1  UNL111      0.0544
     29 H         119.2979  153.0794  149.1114 H       1  UNL111      0.0544
     30 H         117.8147  151.5714  147.8556 H       1  UNL111      0.0738
     31 H         116.8119  152.5813  148.9167 H       1  UNL111      0.0738
     32 H         118.3994  152.2691  143.9594 H       1  UNL111      0.0615
     33 H         117.5230  151.2279  145.0733 H       1  UNL111      0.0615
     34 H         121.1679  156.6243  146.7065 H       1  UNL111      0.1221
     35 H         118.8721  155.1317  143.8683 H       1  UNL111      0.0812
     36 H         121.0899  156.0097  144.1591 H       1  UNL111      0.0909
     37 H         115.8271  151.1806  146.4480 H       1  UNL111      0.0667
     38 H         114.9731  152.5998  145.7314 H       1  UNL111      0.0667
     39 H         114.8467  152.2676  147.4850 H       1  UNL111      0.0667
     40 H         119.8709  149.8596  144.6132 H       1  UNL111      0.0939
     41 H         122.1352  149.5299  145.5614 H       1  UNL111      0.1139
@<TRIPOS>UNITY_ATOM_ATTR
4 1
charge 1
@<TRIPOS>BOND
     1     1     8    1
     2     1    16    1
     3     2    14    1
     4     3    20    1
     5     4     7    1
     6     4    11    1
     7     4    18    1
     8     5     6    1
     9     5     8    1
    10     5     9    1
    11     5    10    1
    12     6     7    1
    13     6    15    1
    14     7    12    1
    15     8    14    1
    16     9    11    1
    17    10    13   ar
    18    10    16   ar
    19    12    13    1
    20    13    19   ar
    21    14    17    1
    22    15    17    2
    23    16    20   ar
    24    19    21   ar
    25    20    21   ar
    26     2    22    1
    27     3    23    1
    28     4    24    1
    29     6    25    1
    30     7    26    1
    31     8    27    1
    32     9    28    1
    33     9    29    1
    34    11    30    1
    35    11    31    1
    36    12    32    1
    37    12    33    1
    38    14    34    1
    39    15    35    1
    40    17    36    1
    41    18    37    1
    42    18    38    1
    43    18    39    1
    44    19    40    1
    45    21    41    1
@<TRIPOS>MOLECULE
129670021
 46 50 0 0 0
SMALL
GASTEIGER

@<TRIPOS>ATOM
      1 O         121.2786  151.8577  145.2277 O.2     1  UNL111     -0.5431
      2 O         121.5186  150.2428  147.2585 O.3     1  UNL111     -0.4348
      3 O         117.5993  155.4357  147.9844 O.2     1  UNL111     -0.3925
      4 O         123.4157  153.5683  145.9139 O.2     1  UNL111     -0.5660
      5 N         116.4320  153.7513  145.5424 N.4     1  UNL111      0.4365
      6 C         118.9361  152.2399  145.6643 C.3     1  UNL111      0.0613
      7 C         117.7809  151.9632  146.6275 C.3     1  UNL111      0.0181
      8 C         120.0189  151.1486  145.4991 C.3     1  UNL111      0.0913
      9 C         117.0907  153.3285  146.8883 C.3     1  UNL111      0.0620
     10 C         118.3640  152.7205  144.3091 C.3     1  UNL111     -0.0242
     11 C         119.8248  153.2855  146.2484 C.3     1  UNL111      0.0500
     12 C         117.4324  153.9322  144.4212 C.3     1  UNL111     -0.0320
     13 C         120.2022  150.1889  146.7189 C.3     1  UNL111      0.0606
     14 C         118.1969  151.2178  147.8618 C.2     1  UNL111     -0.0828
     15 C         119.4633  154.3255  147.0758 C.3     1  UNL111      0.0547
     16 C         121.1415  153.0424  145.9187 C.3     1  UNL111      0.1113
     17 C         118.0320  154.4331  147.4260 C.2     1  UNL111      0.1365
     18 C         119.2744  150.4203  147.8774 C.2     1  UNL111     -0.0667
     19 C         115.5546  154.9733  145.7048 C.3     1  UNL111     -0.0399
     20 C         122.1569  153.8943  146.3182 C.3     1  UNL111      0.0949
     21 C         120.4535  155.2012  147.5104 C.3     1  UNL111     -0.0306
     22 C         121.7957  154.9889  147.1209 C.3     1  UNL111     -0.0079
     23 C         124.4602  154.4919  146.2189 C.3     1  UNL111      0.0338
     24 C         125.7390  153.9808  145.5807 C.3     1  UNL111     -0.0340
     25 H         122.1080  150.6071  146.5694 H       1  UNL111      0.2424
     26 H         115.7893  152.9943  145.2734 H       1  UNL111      0.1393
     27 H         117.0510  151.3029  146.1353 H       1  UNL111      0.0774
     28 H         119.8020  150.5343  144.6159 H       1  UNL111      0.1418
     29 H         116.2688  153.1938  147.6020 H       1  UNL111      0.1209
     30 H         117.8049  151.8927  143.8525 H       1  UNL111      0.0545
     31 H         119.1691  152.9680  143.6050 H       1  UNL111      0.0545
     32 H         117.9918  154.8535  144.6155 H       1  UNL111      0.0746
     33 H         116.8593  154.0619  143.4969 H       1  UNL111      0.0746
     34 H         120.0461  149.1609  146.3710 H       1  UNL111      0.1221
     35 H         117.5772  151.2717  148.7566 H       1  UNL111      0.0818
     36 H         119.5144  149.8685  148.7869 H       1  UNL111      0.0909
     37 H         116.1840  155.8502  145.8707 H       1  UNL111      0.0675
     38 H         114.8784  154.7981  146.5450 H       1  UNL111      0.0675
     39 H         114.9794  155.0870  144.7819 H       1  UNL111      0.0675
     40 H         120.2075  156.0424  148.1567 H       1  UNL111      0.1001
     41 H         122.5432  155.6877  147.4889 H       1  UNL111      0.1149
     42 H         124.6000  154.5596  147.3038 H       1  UNL111      0.1121
     43 H         124.2269  155.4809  145.8073 H       1  UNL111      0.1121
     44 H         125.9967  152.9914  145.9725 H       1  UNL111      0.0424
     45 H         126.5707  154.6645  145.7726 H       1  UNL111      0.0424
     46 H         125.6128  153.8723  144.4983 H       1  UNL111      0.0424
@<TRIPOS>UNITY_ATOM_ATTR
5 1
charge 1
@<TRIPOS>BOND
     1     1     8    1
     2     1    16    1
     3     2    13    1
     4     3    17    2
     5     4    20    1
     6     4    23    1
     7     5     9    1
     8     5    12    1
     9     5    19    1
    10     6     7    1
    11     6     8    1
    12     6    10    1
    13     6    11    1
    14     7     9    1
    15     7    14    1
    16     8    13    1
    17     9    17    1
    18    10    12    1
    19    11    15   ar
    20    11    16   ar
    21    13    18    1
    22    14    18    2
    23    15    17    1
    24    15    21   ar
    25    16    20   ar
    26    20    22   ar
    27    21    22   ar
    28    23    24    1
    29     2    25    1
    30     5    26    1
    31     7    27    1
    32     8    28    1
    33     9    29    1
    34    10    30    1
    35    10    31    1
    36    12    32    1
    37    12    33    1
    38    13    34    1
    39    14    35    1
    40    18    36    1
    41    19    37    1
    42    19    38    1
    43    19    39    1
    44    21    40    1
    45    22    41    1
    46    23    42    1
    47    23    43    1
    48    24    44    1
    49    24    45    1
    50    24    46    1
@<TRIPOS>MOLECULE
5745290
 43 47 0 0 0
SMALL
GASTEIGER

@<TRIPOS>ATOM
      1 O         118.3595  151.8132  147.7131 O.3     1  UNL111     -0.5427
      2 O         118.0054  149.9340  145.8965 O.3     1  UNL111     -0.4348
      3 O         116.1222  153.6456  147.4110 O.3     1  UNL111     -0.5426
      4 N         123.0439  153.9160  146.8216 N.4     1  UNL111      0.4275
      5 N         116.5385  155.9730  145.9386 N.pl3   1  UNL111     -0.3982
      6 C         120.6410  152.2869  147.0142 C.3     1  UNL111      0.0535
      7 C         121.6597  152.0638  145.8876 C.3     1  UNL111     -0.0026
      8 C         122.2772  153.4595  145.5559 C.3     1  UNL111     -0.0204
      9 C         119.6256  151.1599  147.3214 C.3     1  UNL111      0.0904
     10 C         121.3684  152.7780  148.2853 C.3     1  UNL111     -0.0258
     11 C         119.6554  153.3221  146.5876 C.ar    1  UNL111      0.0261
     12 C         121.2324  154.5178  145.0828 C.3     1  UNL111     -0.0200
     13 C         122.1849  154.0499  148.0590 C.3     1  UNL111     -0.0364
     14 C         119.8980  154.4083  145.7668 C.ar    1  UNL111     -0.0346
     15 C         119.3862  150.1538  146.1551 C.3     1  UNL111      0.0605
     16 C         121.0654  151.3459  144.7073 C.2     1  UNL111     -0.0869
     17 C         118.4069  153.0314  147.0851 C.ar    1  UNL111      0.1139
     18 C         120.0385  150.4937  144.8456 C.2     1  UNL111     -0.0672
     19 C         118.8334  155.2876  145.5382 C.ar    1  UNL111     -0.0296
     20 C         123.9031  155.1362  146.6060 C.3     1  UNL111     -0.0442
     21 C         117.3569  153.8970  146.8844 C.ar    1  UNL111      0.1209
     22 C         117.5581  155.0407  146.0912 C.ar    1  UNL111      0.0476
     23 H         117.5007  150.6227  146.3658 H       1  UNL111      0.2424
     24 H         116.1961  152.8334  147.9437 H       1  UNL111      0.3411
     25 H         123.7190  153.1651  147.0226 H       1  UNL111      0.1328
     26 H         116.5622  156.6562  145.1959 H       1  UNL111      0.1757
     27 H         115.6262  155.6863  146.2867 H       1  UNL111      0.1757
     28 H         122.4682  151.4127  146.2512 H       1  UNL111      0.0720
     29 H         123.0511  153.3490  144.7862 H       1  UNL111      0.0854
     30 H         119.9508  150.5827  148.1965 H       1  UNL111      0.1417
     31 H         122.0394  151.9832  148.6375 H       1  UNL111      0.0544
     32 H         120.6600  152.9631  149.1034 H       1  UNL111      0.0544
     33 H         121.0558  154.3490  144.0122 H       1  UNL111      0.0617
     34 H         121.6175  155.5365  145.1814 H       1  UNL111      0.0617
     35 H         121.5553  154.9373  147.9402 H       1  UNL111      0.0738
     36 H         122.8619  154.2190  148.9036 H       1  UNL111      0.0738
     37 H         119.7984  149.1838  146.4598 H       1  UNL111      0.1221
     38 H         121.5062  151.4776  143.7204 H       1  UNL111      0.0812
     39 H         119.6621  149.9619  143.9719 H       1  UNL111      0.0909
     40 H         118.9746  156.1652  144.9107 H       1  UNL111      0.1052
     41 H         123.2643  156.0185  146.5314 H       1  UNL111      0.0667
     42 H         124.4854  154.9871  145.6934 H       1  UNL111      0.0667
     43 H         124.5744  155.2242  147.4647 H       1  UNL111      0.0667
@<TRIPOS>UNITY_ATOM_ATTR
4 1
charge 1
@<TRIPOS>BOND
     1     1     9    1
     2     1    17    1
     3     2    15    1
     4     3    21    1
     5     4     8    1
     6     4    13    1
     7     4    20    1
     8     5    22    1
     9     6     7    1
    10     6     9    1
    11     6    10    1
    12     6    11    1
    13     7     8    1
    14     7    16    1
    15     8    12    1
    16     9    15    1
    17    10    13    1
    18    11    14   ar
    19    11    17   ar
    20    12    14    1
    21    14    19   ar
    22    15    18    1
    23    16    18    2
    24    17    21   ar
    25    19    22   ar
    26    21    22   ar
    27     2    23    1
    28     3    24    1
    29     4    25    1
    30     5    26    1
    31     5    27    1
    32     7    28    1
    33     8    29    1
    34     9    30    1
    35    10    31    1
    36    10    32    1
    37    12    33    1
    38    12    34    1
    39    13    35    1
    40    13    36    1
    41    15    37    1
    42    16    38    1
    43    18    39    1
    44    19    40    1
    45    20    41    1
    46    20    42    1
    47    20    43    1
@<TRIPOS>MOLECULE
3084614
 44 48 0 0 0
SMALL
GASTEIGER

@<TRIPOS>ATOM
      1 S         123.4068  154.1336  145.0148 S.3     1  UNL111      0.0055
      2 O         120.7543  151.5293  145.9268 O.2     1  UNL111     -0.5417
      3 O         119.1804  148.8830  147.1000 O.3     1  UNL111     -0.4348
      4 O         123.0441  153.2990  146.3936 O.2     1  UNL111     -0.4142
      5 O         124.4987  153.3669  144.4241 O.co2   1  UNL111     -0.2184
      6 O         122.1734  154.1336  144.2193 O.2     1  UNL111     -0.3434
      7 O         123.7859  155.4595  145.5027 O.2     1  UNL111     -0.3434
      8 N         117.0253  154.6994  145.5407 N.4     1  UNL111      0.4275
      9 C         118.5167  152.3578  146.0011 C.3     1  UNL111      0.0535
     10 C         117.1375  152.3880  146.6510 C.3     1  UNL111     -0.0026
     11 C         116.8124  153.9076  146.8735 C.3     1  UNL111     -0.0206
     12 C         119.3594  151.0773  146.0636 C.3     1  UNL111      0.0905
     13 C         118.4171  152.8933  144.5464 C.3     1  UNL111     -0.0258
     14 C         119.4699  153.2058  146.7872 C.3     1  UNL111      0.0261
     15 C         117.7428  154.5680  147.9315 C.3     1  UNL111     -0.0213
     16 C         117.2453  153.8434  144.3241 C.3     1  UNL111     -0.0364
     17 C         119.1829  154.2876  147.6064 C.3     1  UNL111     -0.0420
     18 C         119.2020  150.2814  147.3903 C.3     1  UNL111      0.0605
     19 C         117.0373  151.5108  147.8702 C.2     1  UNL111     -0.0869
     20 C         120.7493  152.7511  146.5592 C.3     1  UNL111      0.1227
     21 C         117.9492  150.5728  148.1725 C.2     1  UNL111     -0.0672
     22 C         120.2647  155.0093  148.1087 C.3     1  UNL111     -0.0545
     23 C         115.9850  155.7533  145.3181 C.3     1  UNL111     -0.0442
     24 C         121.8118  153.5363  146.9225 C.3     1  UNL111      0.1585
     25 C         121.5752  154.6591  147.7273 C.3     1  UNL111      0.0032
     26 H         120.0703  148.6629  146.7654 H       1  UNL111      0.2424
     27 H         117.9233  155.2069  145.6348 H       1  UNL111      0.1328
     28 H         116.3929  151.9735  145.9569 H       1  UNL111      0.0720
     29 H         115.7601  154.0311  147.1552 H       1  UNL111      0.0854
     30 H         119.1528  150.4196  145.2103 H       1  UNL111      0.1417
     31 H         118.2866  152.0563  143.8483 H       1  UNL111      0.0544
     32 H         119.3420  153.3973  144.2378 H       1  UNL111      0.0544
     33 H         117.5196  154.1651  148.9261 H       1  UNL111      0.0615
     34 H         117.5695  155.6499  147.9643 H       1  UNL111      0.0615
     35 H         117.4448  154.5075  143.4759 H       1  UNL111      0.0738
     36 H         116.3112  153.3042  144.1310 H       1  UNL111      0.0738
     37 H         120.0601  150.4486  148.0525 H       1  UNL111      0.1221
     38 H         116.1573  151.6037  148.5041 H       1  UNL111      0.0812
     39 H         117.8005  149.9535  149.0560 H       1  UNL111      0.0909
     40 H         120.1194  155.8739  148.7517 H       1  UNL111      0.0942
     41 H         115.0225  155.2609  145.1564 H       1  UNL111      0.0667
     42 H         116.2750  156.3419  144.4438 H       1  UNL111      0.0667
     43 H         115.9527  156.3936  146.2031 H       1  UNL111      0.0667
     44 H         122.4168  155.2843  148.0226 H       1  UNL111      0.1174
@<TRIPOS>UNITY_ATOM_ATTR
5 1
charge -1
8 1
charge 1
@<TRIPOS>BOND
     1     1     4    1
     2     1     5    1
     3     1     6    2
     4     1     7    2
     5     2    12    1
     6     2    20    1
     7     3    18    1
     8     4    24    1
     9     8    11    1
    10     8    16    1
    11     8    23    1
    12     9    10    1
    13     9    12    1
    14     9    13    1
    15     9    14    1
    16    10    11    1
    17    10    19    1
    18    11    15    1
    19    12    18    1
    20    13    16    1
    21    14    17   ar
    22    14    20   ar
    23    15    17    1
    24    17    22   ar
    25    18    21    1
    26    19    21    2
    27    20    24   ar
    28    22    25   ar
    29    24    25   ar
    30     3    26    1
    31     8    27    1
    32    10    28    1
    33    11    29    1
    34    12    30    1
    35    13    31    1
    36    13    32    1
    37    15    33    1
    38    15    34    1
    39    16    35    1
    40    16    36    1
    41    18    37    1
    42    19    38    1
    43    21    39    1
    44    22    40    1
    45    23    41    1
    46    23    42    1
    47    23    43    1
    48    25    44    1
@<TRIPOS>MOLECULE
118701638
 46 50 0 0 0
SMALL
GASTEIGER

@<TRIPOS>ATOM
      1 O         118.6254  152.3930  147.7431 O.2     1  UNL111     -0.5430
      2 O         118.0061  150.2400  146.2623 O.3     1  UNL111     -0.4348
      3 O         116.6386  154.4443  147.0301 O.3     1  UNL111     -0.4570
      4 O         116.3883  152.4922  145.7628 O.2     1  UNL111     -0.3381
      5 N         123.6293  153.5308  146.8015 N.4     1  UNL111      0.4275
      6 C         120.9610  152.4159  147.0852 C.3     1  UNL111      0.0533
      7 C         121.9073  151.9273  145.9758 C.3     1  UNL111     -0.0026
      8 C         122.7839  153.1506  145.5619 C.3     1  UNL111     -0.0206
      9 C         119.7635  151.5086  147.4657 C.3     1  UNL111      0.0903
     10 C         121.7694  152.8561  148.3225 C.3     1  UNL111     -0.0259
     11 C         120.1791  153.5775  146.5632 C.3     1  UNL111      0.0244
     12 C         121.9644  154.3598  145.0131 C.3     1  UNL111     -0.0213
     13 C         122.8142  153.9252  148.0117 C.3     1  UNL111     -0.0364
     14 C         120.6164  154.5324  145.6592 C.3     1  UNL111     -0.0423
     15 C         119.4039  150.4294  146.4036 C.3     1  UNL111      0.0605
     16 C         121.1630  151.2799  144.8357 C.2     1  UNL111     -0.0869
     17 C         118.8777  153.5180  147.0066 C.3     1  UNL111      0.1138
     18 C         120.0132  150.6186  145.0429 C.2     1  UNL111     -0.0672
     19 C         124.7207  154.5292  146.5122 C.3     1  UNL111     -0.0442
     20 C         119.7122  155.5355  145.2946 C.3     1  UNL111     -0.0561
     21 C         117.9679  154.4804  146.6239 C.3     1  UNL111      0.1318
     22 C         118.3951  155.5223  145.7952 C.3     1  UNL111     -0.0054
     23 C         115.9500  153.3416  146.5310 C.2     1  UNL111      0.2266
     24 C         114.5503  153.3575  147.0681 C.3     1  UNL111      0.0573
     25 H         117.5908  151.1118  146.0822 H       1  UNL111      0.2424
     26 H         124.1351  152.6735  147.0651 H       1  UNL111      0.1328
     27 H         122.5739  151.1509  146.3789 H       1  UNL111      0.0720
     28 H         123.5185  152.8418  144.8078 H       1  UNL111      0.0854
     29 H         119.9653  150.9836  148.4084 H       1  UNL111      0.1417
     30 H         122.2762  151.9774  148.7435 H       1  UNL111      0.0544
     31 H         121.1094  153.2364  149.1130 H       1  UNL111      0.0544
     32 H         121.7832  154.1727  143.9462 H       1  UNL111      0.0615
     33 H         122.5276  155.2949  145.0776 H       1  UNL111      0.0615
     34 H         122.3673  154.9047  147.8150 H       1  UNL111      0.0738
     35 H         123.5115  154.0269  148.8506 H       1  UNL111      0.0738
     36 H         119.7986  149.4716  146.7670 H       1  UNL111      0.1221
     37 H         121.5787  151.3090  143.8303 H       1  UNL111      0.0812
     38 H         119.5126  150.1245  144.2112 H       1  UNL111      0.0909
     39 H         124.2771  155.5154  146.3619 H       1  UNL111      0.0667
     40 H         125.2618  154.1962  145.6232 H       1  UNL111      0.0667
     41 H         125.3943  154.5426  147.3735 H       1  UNL111      0.0667
     42 H         119.9959  156.3108  144.5847 H       1  UNL111      0.0940
     43 H         117.6918  156.2927  145.4868 H       1  UNL111      0.1154
     44 H         114.5724  153.3495  148.1608 H       1  UNL111      0.0797
     45 H         114.0217  152.4629  146.7268 H       1  UNL111      0.0797
     46 H         114.0224  154.2403  146.6993 H       1  UNL111      0.0797
@<TRIPOS>UNITY_ATOM_ATTR
5 1
charge 1
@<TRIPOS>BOND
     1     1     9    1
     2     1    17    1
     3     2    15    1
     4     3    21    1
     5     3    23    1
     6     4    23    2
     7     5     8    1
     8     5    13    1
     9     5    19    1
    10     6     7    1
    11     6     9    1
    12     6    10    1
    13     6    11    1
    14     7     8    1
    15     7    16    1
    16     8    12    1
    17     9    15    1
    18    10    13    1
    19    11    14   ar
    20    11    17   ar
    21    12    14    1
    22    14    20   ar
    23    15    18    1
    24    16    18    2
    25    17    21   ar
    26    20    22   ar
    27    21    22   ar
    28    23    24    1
    29     2    25    1
    30     5    26    1
    31     7    27    1
    32     8    28    1
    33     9    29    1
    34    10    30    1
    35    10    31    1
    36    12    32    1
    37    12    33    1
    38    13    34    1
    39    13    35    1
    40    15    36    1
    41    16    37    1
    42    18    38    1
    43    19    39    1
    44    19    40    1
    45    19    41    1
    46    20    42    1
    47    22    43    1
    48    24    44    1
    49    24    45    1
    50    24    46    1
@<TRIPOS>MOLECULE
628239
 51 55 0 0 0
SMALL
GASTEIGER

@<TRIPOS>ATOM
      1 BR        117.5561  150.2407  146.0811 Br      1  UNL111     -0.1060
      2 O         121.3527  153.3529  145.1856 O.3     1  UNL111     -0.5324
      3 O         122.4950  152.0588  147.1228 O.3     1  UNL111     -0.4104
      4 O         121.6203  150.0117  146.2756 O.3     1  UNL111     -0.4104
      5 O         122.5657  156.0931  145.9414 O.3     1  UNL111     -0.5683
      6 N         116.2837  153.0920  145.9636 N.4     1  UNL111      0.4295
      7 C         119.1597  152.6679  145.8615 C.3     1  UNL111      0.0796
      8 C         118.3135  151.9049  146.8839 C.3     1  UNL111      0.0616
      9 C         120.5829  152.1494  145.5614 C.3     1  UNL111      0.1233
     10 C         117.1130  152.8367  147.2581 C.3     1  UNL111     -0.0010
     11 C         118.3641  153.0148  144.5701 C.3     1  UNL111     -0.0197
     12 C         119.5744  153.9802  146.4554 C.ar    1  UNL111      0.0307
     13 C         117.5706  154.1701  147.9266 C.3     1  UNL111     -0.0167
     14 C         121.3168  151.3413  146.7287 C.3     1  UNL111      0.1340
     15 C         117.0503  153.7513  144.8404 C.3     1  UNL111     -0.0345
     16 C         118.8374  154.7385  147.3490 C.ar    1  UNL111     -0.0405
     17 C         119.1124  151.3774  148.0365 C.2     1  UNL111     -0.0532
     18 C         120.8248  154.3455  145.9807 C.ar    1  UNL111      0.1098
     19 C         120.4287  151.1274  147.9451 C.2     1  UNL111     -0.0248
     20 C         119.3764  155.9673  147.7176 C.ar    1  UNL111     -0.0569
     21 C         114.9532  153.7515  146.2061 C.3     1  UNL111     -0.0433
     22 C         121.3717  155.5639  146.3270 C.ar    1  UNL111      0.0931
     23 C         120.6194  156.3790  147.1919 C.ar    1  UNL111     -0.0129
     24 C         123.3010  151.4877  148.1430 C.3     1  UNL111      0.0132
     25 C         122.6149  149.9286  145.2599 C.3     1  UNL111      0.0132
     26 C         123.4900  155.2078  145.3206 C.3     1  UNL111      0.0331
     27 H         116.0447  152.1474  145.6189 H       1  UNL111      0.1341
     28 H         120.5247  151.5213  144.6656 H       1  UNL111      0.1575
     29 H         116.4191  152.3191  147.9330 H       1  UNL111      0.0927
     30 H         118.1534  152.1002  144.0033 H       1  UNL111      0.0556
     31 H         118.9615  153.6344  143.8873 H       1  UNL111      0.0556
     32 H         117.7673  153.9604  148.9862 H       1  UNL111      0.0626
     33 H         116.7782  154.9235  147.8950 H       1  UNL111      0.0626
     34 H         117.2067  154.8002  145.1105 H       1  UNL111      0.0741
     35 H         116.4109  153.7189  143.9512 H       1  UNL111      0.0741
     36 H         118.5995  151.1218  148.9627 H       1  UNL111      0.0915
     37 H         120.9059  150.6619  148.8047 H       1  UNL111      0.1082
     38 H         118.8635  156.6195  148.4221 H       1  UNL111      0.0939
     39 H         115.1136  154.8026  146.4543 H       1  UNL111      0.0668
     40 H         114.4529  153.2224  147.0208 H       1  UNL111      0.0668
     41 H         114.3652  153.6612  145.2887 H       1  UNL111      0.0668
     42 H         121.0277  157.3444  147.4906 H       1  UNL111      0.1142
     43 H         124.2880  151.9565  148.0921 H       1  UNL111      0.0852
     44 H         123.4275  150.4086  148.0198 H       1  UNL111      0.0852
     45 H         122.8818  151.7099  149.1281 H       1  UNL111      0.0852
     46 H         122.7848  148.8689  145.0482 H       1  UNL111      0.0852
     47 H         123.5634  150.3624  145.5861 H       1  UNL111      0.0852
     48 H         122.2891  150.4050  144.3327 H       1  UNL111      0.0852
     49 H         124.4340  155.7482  145.1990 H       1  UNL111      0.1074
     50 H         123.1468  154.9186  144.3227 H       1  UNL111      0.1074
     51 H         123.6921  154.3341  145.9483 H       1  UNL111      0.1074
@<TRIPOS>UNITY_ATOM_ATTR
6 1
charge 1
@<TRIPOS>BOND
     1     1     8    1
     2     2     9    1
     3     2    18    1
     4     3    14    1
     5     3    24    1
     6     4    14    1
     7     4    25    1
     8     5    22    1
     9     5    26    1
    10     6    10    1
    11     6    15    1
    12     6    21    1
    13     7     8    1
    14     7     9    1
    15     7    11    1
    16     7    12    1
    17     8    10    1
    18     8    17    1
    19     9    14    1
    20    10    13    1
    21    11    15    1
    22    12    16   ar
    23    12    18   ar
    24    13    16    1
    25    14    19    1
    26    16    20   ar
    27    17    19    2
    28    18    22   ar
    29    20    23   ar
    30    22    23   ar
    31     6    27    1
    32     9    28    1
    33    10    29    1
    34    11    30    1
    35    11    31    1
    36    13    32    1
    37    13    33    1
    38    15    34    1
    39    15    35    1
    40    17    36    1
    41    19    37    1
    42    20    38    1
    43    21    39    1
    44    21    40    1
    45    21    41    1
    46    23    42    1
    47    24    43    1
    48    24    44    1
    49    24    45    1
    50    25    46    1
    51    25    47    1
    52    25    48    1
    53    26    49    1
    54    26    50    1
    55    26    51    1
@<TRIPOS>MOLECULE
5491523
 44 48 0 0 0
SMALL
GASTEIGER

@<TRIPOS>ATOM
      1 P         115.7306  152.2578  147.1944 P.3     1  UNL111     -0.0603
      2 O         118.8934  154.1783  147.4994 O.2     1  UNL111     -0.5434
      3 O         116.9083  152.8374  146.2114 O.3     1  UNL111     -0.4283
      4 O         118.9955  156.9442  146.7589 O.2     1  UNL111     -0.5485
      5 O         114.6825  153.3522  147.1749 O.co2   1  UNL111     -0.5336
      6 O         116.4495  152.0597  148.5241 O.co2   1  UNL111     -0.5336
      7 O         115.3475  150.9551  146.5088 O.2     1  UNL111     -0.6342
      8 N         123.2104  151.3464  146.7774 N.4     1  UNL111      0.4275
      9 C         120.5601  152.5002  146.9687 C.3     1  UNL111      0.0536
     10 C         120.8881  151.4615  145.8811 C.3     1  UNL111     -0.0025
     11 C         122.3822  151.6688  145.5079 C.3     1  UNL111     -0.0206
     12 C         119.0706  152.7263  147.3245 C.3     1  UNL111      0.0923
     13 C         121.4032  152.2507  148.2327 C.3     1  UNL111     -0.0258
     14 C         120.8725  153.8544  146.4156 C.3     1  UNL111      0.0233
     15 C         122.7081  153.0839  144.9342 C.3     1  UNL111     -0.0213
     16 C         122.8981  152.2424  147.9555 C.3     1  UNL111     -0.0364
     17 C         118.0975  152.0955  146.2951 C.3     1  UNL111      0.0672
     18 C         121.8856  154.1899  145.5332 C.3     1  UNL111     -0.0425
     19 C         119.9510  151.5545  144.7040 C.2     1  UNL111     -0.0864
     20 C         119.9035  154.7496  146.7904 C.3     1  UNL111      0.1051
     21 C         118.6692  151.8945  144.9071 C.2     1  UNL111     -0.0647
     22 C         124.6826  151.2266  146.5316 C.3     1  UNL111     -0.0442
     23 C         121.9738  155.5293  145.1362 C.3     1  UNL111     -0.0573
     24 C         119.9695  156.0650  146.4031 C.3     1  UNL111      0.0917
     25 C         121.0266  156.4705  145.5920 C.3     1  UNL111     -0.0140
     26 H         118.2676  156.3870  147.1219 H       1  UNL111      0.3393
     27 H         122.8988  150.4069  147.0621 H       1  UNL111      0.1328
     28 H         120.7715  150.4476  146.2908 H       1  UNL111      0.0720
     29 H         122.6893  150.9090  144.7780 H       1  UNL111      0.0854
     30 H         118.8587  152.2886  148.3068 H       1  UNL111      0.1422
     31 H         121.1162  151.2835  148.6666 H       1  UNL111      0.0544
     32 H         121.1981  153.0057  149.0030 H       1  UNL111      0.0544
     33 H         122.4762  153.0606  143.8609 H       1  UNL111      0.0615
     34 H         123.7713  153.3235  145.0214 H       1  UNL111      0.0615
     35 H         123.2967  153.2385  147.7392 H       1  UNL111      0.0738
     36 H         123.4398  151.8383  148.8179 H       1  UNL111      0.0738
     37 H         117.8864  151.0703  146.6328 H       1  UNL111      0.1257
     38 H         120.2803  151.3115  143.6988 H       1  UNL111      0.0812
     39 H         117.9458  151.9221  144.0954 H       1  UNL111      0.0914
     40 H         125.1026  152.2190  146.3542 H       1  UNL111      0.0667
     41 H         124.8363  150.5732  145.6692 H       1  UNL111      0.0667
     42 H         125.1355  150.7784  147.4202 H       1  UNL111      0.0667
     43 H         122.7339  155.8533  144.4301 H       1  UNL111      0.0939
     44 H         121.0737  157.5040  145.2607 H       1  UNL111      0.1139
@<TRIPOS>UNITY_ATOM_ATTR
5 1
charge -1
6 1
charge -1
8 1
charge 1
@<TRIPOS>BOND
     1     1     3    1
     2     1     5    1
     3     1     6    1
     4     1     7    2
     5     2    12    1
     6     2    20    1
     7     3    17    1
     8     4    24    1
     9     8    11    1
    10     8    16    1
    11     8    22    1
    12     9    10    1
    13     9    12    1
    14     9    13    1
    15     9    14    1
    16    10    11    1
    17    10    19    1
    18    11    15    1
    19    12    17    1
    20    13    16    1
    21    14    18   ar
    22    14    20   ar
    23    15    18    1
    24    17    21    1
    25    18    23   ar
    26    19    21    2
    27    20    24   ar
    28    23    25   ar
    29    24    25   ar
    30     4    26    1
    31     8    27    1
    32    10    28    1
    33    11    29    1
    34    12    30    1
    35    13    31    1
    36    13    32    1
    37    15    33    1
    38    15    34    1
    39    16    35    1
    40    16    36    1
    41    17    37    1
    42    19    38    1
    43    21    39    1
    44    22    40    1
    45    22    41    1
    46    22    42    1
    47    23    43    1
    48    25    44    1
@<TRIPOS>MOLECULE
129850019
 28 32 0 0 0
SMALL
GASTEIGER

@<TRIPOS>ATOM
      1 O         117.6367  152.6168  147.1840 O.2     1  UNL111     -0.5596
      2 O         117.5908  149.7355  146.4837 O.3     1  UNL111     -0.3117
      3 O         116.2136  155.2193  146.6800 O.co2   1  UNL111     -0.7919
      4 N         123.1865  152.9110  146.7982 N.4     1  UNL111      0.4538
      5 C         120.0572  152.4404  147.0519 C.3     1  UNL111      0.0773
      6 C         121.0332  151.8488  145.9233 C.3     1  UNL111      0.0090
      7 C         122.1760  152.9258  145.6015 C.3     1  UNL111      0.0185
      8 C         118.7579  151.6746  147.3441 C.3     1  UNL111      0.1030
      9 C         120.9396  152.6630  148.2143 C.3     1  UNL111      0.0684
     10 C         119.5093  153.7408  146.5623 C.2     1  UNL111      0.0175
     11 C         121.5053  154.2282  145.5001 C.3     1  UNL111      0.0452
     12 C         122.4043  152.9436  148.0329 C.3     1  UNL111      0.0558
     13 C         120.2274  154.7103  145.8755 C.2     1  UNL111     -0.0092
     14 C         118.7500  150.3522  146.4784 C.3     1  UNL111      0.1128
     15 C         120.2349  151.3408  144.7513 C.2     1  UNL111     -0.0828
     16 C         118.1512  153.8244  146.7479 C.2     1  UNL111      0.0418
     17 C         119.1256  150.6345  145.0321 C.2     1  UNL111     -0.0517
     18 C         124.2532  153.9129  146.7630 C.3     1  UNL111      0.0925
     19 C         119.6006  155.8619  145.4734 C.2     1  UNL111     -0.0125
     20 C         117.4466  155.0009  146.4400 C.2     1  UNL111     -0.0524
     21 C         118.2446  155.9968  145.8106 C.2     1  UNL111     -0.0255
     22 H         123.6358  151.9889  146.7759 H       1  UNL111      0.1672
     23 H         121.5557  150.9596  146.3143 H       1  UNL111      0.0737
     24 H         122.7443  152.6531  144.7058 H       1  UNL111      0.0954
     25 H         118.7167  151.3749  148.4018 H       1  UNL111      0.1450
     26 H         119.6041  149.7735  146.8706 H       1  UNL111      0.1443
     27 H         120.5041  151.5475  143.7223 H       1  UNL111      0.0816
     28 H         118.4834  150.2618  144.2361 H       1  UNL111      0.0942
@<TRIPOS>UNITY_ATOM_ATTR
3 1
charge -1
4 1
charge 1
@<TRIPOS>BOND
     1     1     8    1
     2     1    16    1
     3     2    14    1
     4     3    20    1
     5     4     7    1
     6     4    12    1
     7     4    18    1
     8     5     6    1
     9     5     8    1
    10     5     9    1
    11     5    10    1
    12     6     7    1
    13     6    15    1
    14     7    11    1
    15     8    14    1
    16     9    12    1
    17    10    13    2
    18    10    16    1
    19    11    13    1
    20    13    19    1
    21    14    17    1
    22    15    17    2
    23    16    20    2
    24    19    21    2
    25    20    21    1
    26     4    22    1
    27     6    23    1
    28     7    24    1
    29     8    25    1
    30    14    26    1
    31    15    27    1
    32    17    28    1
@<TRIPOS>MOLECULE
70137616
 58 62 0 0 0
SMALL
GASTEIGER

@<TRIPOS>ATOM
      1 O         119.5016  154.4136  145.2197 O.2     1  UNL111     -0.5567
      2 O         119.8223  156.0007  147.2482 O.3     1  UNL111     -0.4349
      3 O         117.8835  153.9738  147.7604 O.3     1  UNL111     -0.4286
      4 N         123.6882  151.4039  145.6716 N.4     1  UNL111      0.4274
      5 N         111.9909  152.7671  145.4666 N.4     1  UNL111      0.4358
      6 C         121.7004  153.5304  145.6228 C.3     1  UNL111      0.0501
      7 C         123.0220  153.6899  146.3911 C.3     1  UNL111     -0.0030
      8 C         120.9081  154.8309  145.3435 C.3     1  UNL111      0.0864
      9 C         123.4027  152.2781  146.9155 C.3     1  UNL111     -0.0209
     10 C         120.6483  152.8218  146.4014 C.2     1  UNL111      0.0086
     11 C         121.9944  152.7015  144.3496 C.3     1  UNL111     -0.0263
     12 C         122.3257  151.6654  147.8591 C.3     1  UNL111     -0.0233
     13 C         120.8911  151.8716  147.4391 C.2     1  UNL111     -0.0533
     14 C         119.4547  153.3253  146.1026 C.2     1  UNL111      0.0612
     15 C         122.5544  151.3129  144.6734 C.3     1  UNL111     -0.0364
     16 C         121.0085  155.9344  146.4511 C.3     1  UNL111      0.0600
     17 C         123.0100  154.7624  147.4380 C.2     1  UNL111     -0.0869
     18 C         118.1862  152.9343  146.8154 C.3     1  UNL111      0.0739
     19 C         122.1204  155.7632  147.4380 C.2     1  UNL111     -0.0672
     20 C         118.3942  151.5952  147.6059 C.3     1  UNL111     -0.0001
     21 C         119.8290  151.2785  148.0117 C.2     1  UNL111     -0.0854
     22 C         116.9740  152.8490  145.8588 C.3     1  UNL111     -0.0154
     23 C         124.2516  150.0445  146.0029 C.3     1  UNL111     -0.0442
     24 C         115.6391  152.5818  146.5774 C.3     1  UNL111     -0.0470
     25 C         114.4403  152.7302  145.6348 C.3     1  UNL111     -0.0551
     26 C         113.1291  152.5580  146.3931 C.3     1  UNL111     -0.0359
     27 H         119.0790  156.0789  146.6191 H       1  UNL111      0.2424
     28 H         118.7209  154.4154  148.0140 H       1  UNL111      0.2451
     29 H         124.4586  151.8783  145.1790 H       1  UNL111      0.1328
     30 H         111.0924  152.6567  145.9569 H       1  UNL111      0.1369
     31 H         111.9957  152.0948  144.6883 H       1  UNL111      0.1369
     32 H         111.9966  153.7138  145.0629 H       1  UNL111      0.1369
     33 H         123.8066  154.0076  145.6874 H       1  UNL111      0.0719
     34 H         121.2171  155.2636  144.3840 H       1  UNL111      0.1409
     35 H         124.3603  152.3266  147.4492 H       1  UNL111      0.0854
     36 H         122.7161  153.2441  143.7245 H       1  UNL111      0.0544
     37 H         121.0946  152.5813  143.7323 H       1  UNL111      0.0544
     38 H         122.4439  152.1527  148.8371 H       1  UNL111      0.0612
     39 H         122.5180  150.6013  148.0306 H       1  UNL111      0.0612
     40 H         121.7938  150.6443  145.0890 H       1  UNL111      0.0738
     41 H         122.9614  150.8493  143.7681 H       1  UNL111      0.0738
     42 H         121.1175  156.9095  145.9627 H       1  UNL111      0.1220
     43 H         123.7917  154.7656  148.1974 H       1  UNL111      0.0812
     44 H         122.1845  156.5276  148.2128 H       1  UNL111      0.0909
     45 H         118.0477  150.7452  147.0042 H       1  UNL111      0.0615
     46 H         117.7880  151.6193  148.5202 H       1  UNL111      0.0615
     47 H         119.9602  150.5585  148.8169 H       1  UNL111      0.0806
     48 H         117.1436  152.0757  145.0990 H       1  UNL111      0.0515
     49 H         116.8769  153.8042  145.3249 H       1  UNL111      0.0515
     50 H         123.4557  149.4169  146.4093 H       1  UNL111      0.0667
     51 H         125.0625  150.1770  146.7233 H       1  UNL111      0.0667
     52 H         124.6425  149.6131  145.0773 H       1  UNL111      0.0667
     53 H         115.5162  153.2833  147.4107 H       1  UNL111      0.0374
     54 H         115.6422  151.5724  147.0049 H       1  UNL111      0.0374
     55 H         114.5101  151.9888  144.8296 H       1  UNL111      0.0451
     56 H         114.4646  153.7208  145.1641 H       1  UNL111      0.0451
     57 H         113.0250  151.5492  146.8033 H       1  UNL111      0.0719
     58 H         113.0208  153.2940  147.1953 H       1  UNL111      0.0719
@<TRIPOS>UNITY_ATOM_ATTR
4 1
charge 1
5 1
charge 1
@<TRIPOS>BOND
     1     1     8    1
     2     1    14    1
     3     2    16    1
     4     3    18    1
     5     4     9    1
     6     4    15    1
     7     4    23    1
     8     5    26    1
     9     6     7    1
    10     6     8    1
    11     6    10    1
    12     6    11    1
    13     7     9    1
    14     7    17    1
    15     8    16    1
    16     9    12    1
    17    10    13    1
    18    10    14    2
    19    11    15    1
    20    12    13    1
    21    13    21    2
    22    14    18    1
    23    16    19    1
    24    17    19    2
    25    18    20    1
    26    18    22    1
    27    20    21    1
    28    22    24    1
    29    24    25    1
    30    25    26    1
    31     2    27    1
    32     3    28    1
    33     4    29    1
    34     5    30    1
    35     5    31    1
    36     5    32    1
    37     7    33    1
    38     8    34    1
    39     9    35    1
    40    11    36    1
    41    11    37    1
    42    12    38    1
    43    12    39    1
    44    15    40    1
    45    15    41    1
    46    16    42    1
    47    17    43    1
    48    19    44    1
    49    20    45    1
    50    20    46    1
    51    21    47    1
    52    22    48    1
    53    22    49    1
    54    23    50    1
    55    23    51    1
    56    23    52    1
    57    24    53    1
    58    24    54    1
    59    25    55    1
    60    25    56    1
    61    26    57    1
    62    26    58    1
@<TRIPOS>MOLECULE
71315308
 64 70 0 0 0
SMALL
GASTEIGER

@<TRIPOS>ATOM
      1 O         122.0645  153.4600  147.8265 O.2     1  UNL1111    -0.5290
      2 O         123.1087  156.1635  148.0532 O.2     1  UNL1111    -0.3926
      3 O         123.6825  151.7284  146.2587 O.2     1  UNL1111    -0.5550
      4 O         115.1399  153.3107  146.2565 O.3     1  UNL1111    -0.4927
      5 O         115.5436  155.0668  144.8649 O.2     1  UNL1111    -0.2913
      6 N         117.2420  154.2042  146.1639 N.am    1  UNL1111    -0.2752
      7 C         119.9395  154.3889  147.1815 C.3     1  UNL1111     0.0652
      8 C         119.2304  155.6098  146.5918 C.3     1  UNL1111     0.0148
      9 C         118.2551  155.0629  145.5101 C.3     1  UNL1111     0.0313
     10 C         121.2126  154.6346  148.0008 C.3     1  UNL1111     0.1417
     11 C         118.8979  153.5345  147.9343 C.3     1  UNL1111    -0.0110
     12 C         120.5754  153.5813  146.1018 C.3     1  UNL1111     0.0231
     13 C         118.9643  154.2942  144.3479 C.3     1  UNL1111    -0.0078
     14 C         117.7061  153.1350  147.0543 C.3     1  UNL1111     0.0140
     15 C         120.1312  153.4555  144.8005 C.3     1  UNL1111    -0.0438
     16 C         120.1780  156.6771  146.1162 C.2     1  UNL1111    -0.0719
     17 C         121.7584  153.0290  146.5540 C.3     1  UNL1111     0.1101
     18 C         122.0067  155.8831  147.5807 C.2     1  UNL1111     0.1521
     19 C         121.4323  156.8059  146.5662 C.2     1  UNL1111    -0.0036
     20 C         120.8755  152.6273  143.9617 C.3     1  UNL1111    -0.0583
     21 C         122.5256  152.2237  145.7361 C.3     1  UNL1111     0.0968
     22 C         115.9351  154.2581  145.6987 C.2     1  UNL1111     0.3021
     23 C         122.0500  151.9966  144.4347 C.3     1  UNL1111    -0.0125
     24 C         124.6964  151.3784  145.3205 C.3     1  UNL1111     0.0643
     25 C         113.7929  153.3354  145.7808 C.3     1  UNL1111     0.0843
     26 C         126.0271  151.3834  146.0308 C.3     1  UNL1111    -0.0374
     27 C         113.0563  152.1800  146.4071 C.3     1  UNL1111    -0.0339
     28 C         126.7170  152.5903  146.2198 C.3     1  UNL1111    -0.0702
     29 C         126.5784  150.1997  146.5387 C.3     1  UNL1111    -0.0702
     30 C         113.0027  150.9369  145.7608 C.3     1  UNL1111    -0.0699
     31 C         112.4462  152.3206  147.6614 C.3     1  UNL1111    -0.0699
     32 C         127.9469  152.6085  146.8783 C.3     1  UNL1111    -0.0836
     33 C         127.8086  150.2204  147.1993 C.3     1  UNL1111    -0.0836
     34 C         112.3319  149.8628  146.3474 C.3     1  UNL1111    -0.0836
     35 C         111.7760  151.2450  148.2464 C.3     1  UNL1111    -0.0836
     36 C         128.4941  151.4230  147.3646 C.3     1  UNL1111    -0.0863
     37 C         111.7167  150.0179  147.5883 C.3     1  UNL1111    -0.0863
     38 H         118.6258  156.0894  147.3763 H       1  UNL1111     0.0676
     39 H         117.7301  155.9133  145.0568 H       1  UNL1111     0.0874
     40 H         120.9835  154.7448  149.0675 H       1  UNL1111     0.1629
     41 H         118.5206  154.1174  148.7855 H       1  UNL1111     0.0496
     42 H         119.3448  152.6265  148.3590 H       1  UNL1111     0.0496
     43 H         119.3538  155.0343  143.6372 H       1  UNL1111     0.0566
     44 H         118.2434  153.6651  143.8126 H       1  UNL1111     0.0566
     45 H         117.9705  152.2829  146.4169 H       1  UNL1111     0.0758
     46 H         116.8893  152.7951  147.7000 H       1  UNL1111     0.0758
     47 H         119.7994  157.4102  145.4064 H       1  UNL1111     0.0831
     48 H         122.0854  157.6055  146.2335 H       1  UNL1111     0.1144
     49 H         120.5703  152.4751  142.9284 H       1  UNL1111     0.0937
     50 H         122.5880  151.3490  143.7482 H       1  UNL1111     0.1143
     51 H         124.7485  152.0927  144.4877 H       1  UNL1111     0.1283
     52 H         124.4905  150.3824  144.9101 H       1  UNL1111     0.1283
     53 H         113.7688  153.2421  144.6877 H       1  UNL1111     0.1328
     54 H         113.3121  154.2809  146.0608 H       1  UNL1111     0.1328
     55 H         126.2900  153.5256  145.8632 H       1  UNL1111     0.0920
     56 H         126.0487  149.2563  146.4306 H       1  UNL1111     0.0920
     57 H         113.4854  150.7989  144.7957 H       1  UNL1111     0.0920
     58 H         112.4920  153.2702  148.1900 H       1  UNL1111     0.0920
     59 H         128.4712  153.5498  147.0205 H       1  UNL1111     0.0879
     60 H         128.2287  149.2987  147.5928 H       1  UNL1111     0.0879
     61 H         112.2918  148.9039  145.8373 H       1  UNL1111     0.0879
     62 H         111.3024  151.3638  149.2174 H       1  UNL1111     0.0879
     63 H         129.4487  151.4388  147.8834 H       1  UNL1111     0.0874
     64 H         111.1954  149.1807  148.0448 H       1  UNL1111     0.0874
@<TRIPOS>BOND
     1     1    10    1
     2     1    17    1
     3     2    18    2
     4     3    21    1
     5     3    24    1
     6     4    22    1
     7     4    25    1
     8     5    22    2
     9     6     9    1
    10     6    14    1
    11     6    22   am
    12     7     8    1
    13     7    10    1
    14     7    11    1
    15     7    12    1
    16     8     9    1
    17     8    16    1
    18     9    13    1
    19    10    18    1
    20    11    14    1
    21    12    15   ar
    22    12    17   ar
    23    13    15    1
    24    15    20   ar
    25    16    19    2
    26    17    21   ar
    27    18    19    1
    28    20    23   ar
    29    21    23   ar
    30    24    26    1
    31    25    27    1
    32    26    28   ar
    33    26    29   ar
    34    27    30   ar
    35    27    31   ar
    36    28    32   ar
    37    29    33   ar
    38    30    34   ar
    39    31    35   ar
    40    32    36   ar
    41    33    36   ar
    42    34    37   ar
    43    35    37   ar
    44     8    38    1
    45     9    39    1
    46    10    40    1
    47    11    41    1
    48    11    42    1
    49    13    43    1
    50    13    44    1
    51    14    45    1
    52    14    46    1
    53    16    47    1
    54    19    48    1
    55    20    49    1
    56    23    50    1
    57    24    51    1
    58    24    52    1
    59    25    53    1
    60    25    54    1
    61    28    55    1
    62    29    56    1
    63    30    57    1
    64    31    58    1
    65    32    59    1
    66    33    60    1
    67    34    61    1
    68    35    62    1
    69    36    63    1
    70    37    64    1
@<TRIPOS>MOLECULE
124037292
 68 72 0 0 0
SMALL
GASTEIGER

@<TRIPOS>ATOM
      1 O         117.8842  150.8196  144.8330 O.3     1  UNL111     -0.5435
      2 O         116.3475  153.2599  148.4733 O.3     1  UNL111     -0.4361
      3 O         119.7867  150.5255  146.8068 O.3     1  UNL111     -0.4410
      4 O         119.8519  150.9731  142.6716 O.3     1  UNL111     -0.5485
      5 O         122.6117  150.9368  147.3722 O.3     1  UNL111     -0.4504
      6 O         123.7275  153.6650  146.8448 O.3     1  UNL111     -0.4505
      7 O         123.7573  157.2984  147.1706 O.3     1  UNL111     -0.4625
      8 N         116.7097  155.3503  146.9928 N.4     1  UNL111      0.4300
      9 C         117.4197  152.6195  146.3751 C.3     1  UNL111      0.0718
     10 C         117.6313  153.2092  147.7798 C.3     1  UNL111      0.0452
     11 C         117.4666  151.0839  146.2228 C.3     1  UNL111      0.0926
     12 C         118.0121  154.7115  147.5611 C.3     1  UNL111      0.0007
     13 C         116.1656  153.2558  145.7182 C.3     1  UNL111     -0.0197
     14 C         118.5645  152.9136  145.4727 C.ar    1  UNL111      0.0304
     15 C         118.6139  152.4230  148.6510 C.3     1  UNL111     -0.0143
     16 C         118.4271  150.3470  147.2150 C.3     1  UNL111      0.0503
     17 C         119.2524  154.9754  146.6632 C.3     1  UNL111     -0.0148
     18 C         118.2859  150.9185  148.6291 C.3     1  UNL111     -0.0148
     19 C         116.2422  154.7873  145.6717 C.3     1  UNL111     -0.0337
     20 C         119.3929  154.0172  145.5159 C.ar    1  UNL111     -0.0397
     21 C         118.7173  151.8854  144.5619 C.ar    1  UNL111      0.1065
     22 C         116.6760  156.8435  147.0412 C.3     1  UNL111     -0.0427
     23 C         120.3767  154.1031  144.5284 C.ar    1  UNL111     -0.0569
     24 C         119.6733  151.9666  143.5802 C.ar    1  UNL111      0.0919
     25 C         120.5021  153.0890  143.5522 C.ar    1  UNL111     -0.0140
     26 C         120.6795  149.4903  147.2266 C.3     1  UNL111      0.0283
     27 C         122.0758  149.7972  146.6879 C.3     1  UNL111      0.0262
     28 C         123.9228  151.2569  146.8891 C.3     1  UNL111      0.0258
     29 C         124.3884  152.5761  147.5027 C.3     1  UNL111      0.0258
     30 C         124.1172  154.9225  147.3930 C.3     1  UNL111      0.0254
     31 C         123.4731  156.0352  146.5748 C.3     1  UNL111      0.0227
     32 C         123.2856  158.3737  146.3697 C.3     1  UNL111     -0.0027
     33 H         116.3003  152.5481  149.1405 H       1  UNL111      0.2435
     34 H         119.2313  150.2621  142.9178 H       1  UNL111      0.3393
     35 H         116.0071  155.0142  147.6786 H       1  UNL111      0.1349
     36 H         116.4588  150.6698  146.3534 H       1  UNL111      0.1416
     37 H         118.1471  155.2022  148.5331 H       1  UNL111      0.0967
     38 H         115.2671  152.9555  146.2727 H       1  UNL111      0.0561
     39 H         116.0110  152.8882  144.6950 H       1  UNL111      0.0561
     40 H         118.5529  152.7736  149.6888 H       1  UNL111      0.0524
     41 H         119.6471  152.5828  148.3232 H       1  UNL111      0.0524
     42 H         118.1844  149.2777  147.1933 H       1  UNL111      0.1139
     43 H         120.1454  154.8593  147.2906 H       1  UNL111      0.0633
     44 H         119.2543  156.0041  146.2894 H       1  UNL111      0.0633
     45 H         117.2742  150.7297  149.0039 H       1  UNL111      0.0503
     46 H         118.9729  150.4138  149.3167 H       1  UNL111      0.0503
     47 H         116.9226  155.1499  144.8949 H       1  UNL111      0.0743
     48 H         115.2478  155.2040  145.4765 H       1  UNL111      0.0743
     49 H         117.3537  157.2396  146.2819 H       1  UNL111      0.0670
     50 H         116.9752  157.1630  148.0424 H       1  UNL111      0.0670
     51 H         115.6496  157.1637  146.8428 H       1  UNL111      0.0670
     52 H         121.0803  154.9326  144.5112 H       1  UNL111      0.0939
     53 H         121.2812  153.1597  142.7966 H       1  UNL111      0.1139
     54 H         120.3331  148.5338  146.8212 H       1  UNL111      0.1002
     55 H         120.7026  149.4421  148.3193 H       1  UNL111      0.1002
     56 H         122.7330  148.9374  146.8575 H       1  UNL111      0.0998
     57 H         122.0220  150.0164  145.6155 H       1  UNL111      0.0998
     58 H         123.9023  151.3388  145.7963 H       1  UNL111      0.0997
     59 H         124.6037  150.4519  147.1860 H       1  UNL111      0.0997
     60 H         124.1546  152.6049  148.5727 H       1  UNL111      0.0997
     61 H         125.4688  152.6833  147.3557 H       1  UNL111      0.0997
     62 H         125.2082  155.0303  147.3672 H       1  UNL111      0.0997
     63 H         123.7968  154.9882  148.4393 H       1  UNL111      0.0997
     64 H         123.8524  156.0014  145.5461 H       1  UNL111      0.0991
     65 H         122.3881  155.8875  146.5334 H       1  UNL111      0.0991
     66 H         123.5277  159.3123  146.8749 H       1  UNL111      0.0817
     67 H         122.1996  158.3106  146.2492 H       1  UNL111      0.0817
     68 H         123.7741  158.3667  145.3906 H       1  UNL111      0.0817
@<TRIPOS>UNITY_ATOM_ATTR
8 1
charge 1
@<TRIPOS>BOND
     1     1    11    1
     2     1    21    1
     3     2    10    1
     4     3    16    1
     5     3    26    1
     6     4    24    1
     7     5    27    1
     8     5    28    1
     9     6    29    1
    10     6    30    1
    11     7    31    1
    12     7    32    1
    13     8    12    1
    14     8    19    1
    15     8    22    1
    16     9    10    1
    17     9    11    1
    18     9    13    1
    19     9    14    1
    20    10    12    1
    21    10    15    1
    22    11    16    1
    23    12    17    1
    24    13    19    1
    25    14    20   ar
    26    14    21   ar
    27    15    18    1
    28    16    18    1
    29    17    20    1
    30    20    23   ar
    31    21    24   ar
    32    23    25   ar
    33    24    25   ar
    34    26    27    1
    35    28    29    1
    36    30    31    1
    37     2    33    1
    38     4    34    1
    39     8    35    1
    40    11    36    1
    41    12    37    1
    42    13    38    1
    43    13    39    1
    44    15    40    1
    45    15    41    1
    46    16    42    1
    47    17    43    1
    48    17    44    1
    49    18    45    1
    50    18    46    1
    51    19    47    1
    52    19    48    1
    53    22    49    1
    54    22    50    1
    55    22    51    1
    56    23    52    1
    57    25    53    1
    58    26    54    1
    59    26    55    1
    60    27    56    1
    61    27    57    1
    62    28    58    1
    63    28    59    1
    64    29    60    1
    65    29    61    1
    66    30    62    1
    67    30    63    1
    68    31    64    1
    69    31    65    1
    70    32    66    1
    71    32    67    1
    72    32    68    1
@<TRIPOS>MOLECULE
18666969
 44 48 0 0 0
SMALL
GASTEIGER

@<TRIPOS>ATOM
      1 S         116.3521  154.3540  147.4890 S.3     1  UNL111      0.0055
      2 O         118.8853  151.5790  147.1389 O.2     1  UNL111     -0.5417
      3 O         119.5248  149.8109  145.2681 O.3     1  UNL111     -0.4348
      4 O         116.6982  153.3077  146.2569 O.2     1  UNL111     -0.4142
      5 O         115.2446  153.7102  148.1880 O.co2   1  UNL111     -0.2184
      6 O         117.5830  154.4557  148.2837 O.2     1  UNL111     -0.3434
      7 O         116.0009  155.5955  146.8001 O.2     1  UNL111     -0.3434
      8 N         123.0137  154.5778  147.2849 N.4     1  UNL111      0.4275
      9 C         121.1444  152.3726  147.0576 C.3     1  UNL111      0.0535
     10 C         122.5697  152.2282  146.5328 C.3     1  UNL111     -0.0026
     11 C         122.9958  153.6481  146.0368 C.3     1  UNL111     -0.0206
     12 C         120.2782  151.1196  147.2475 C.3     1  UNL111      0.0905
     13 C         121.1676  153.2563  148.3294 C.3     1  UNL111     -0.0258
     14 C         120.2687  153.0305  146.0476 C.3     1  UNL111      0.0261
     15 C         122.1036  154.2105  144.8876 C.3     1  UNL111     -0.0213
     16 C         121.6959  154.6583  148.0497 C.3     1  UNL111     -0.0364
     17 C         120.6402  153.9801  145.1128 C.3     1  UNL111     -0.0420
     18 C         120.5634  149.9707  146.2310 C.3     1  UNL111      0.0605
     19 C         122.7210  151.1126  145.5382 C.2     1  UNL111     -0.0869
     20 C         118.9678  152.6522  146.2804 C.3     1  UNL111      0.1227
     21 C         121.8318  150.1127  145.4321 C.2     1  UNL111     -0.0672
     22 C         119.6123  154.6327  144.4339 C.3     1  UNL111     -0.0545
     23 C         123.5580  155.9527  147.0145 C.3     1  UNL111     -0.0442
     24 C         117.9550  153.3990  145.7387 C.3     1  UNL111      0.1585
     25 C         118.2707  154.3715  144.7797 C.3     1  UNL111      0.0032
     26 H         118.7023  150.1433  145.6811 H       1  UNL111      0.2424
     27 H         123.6787  154.1490  147.9403 H       1  UNL111      0.1328
     28 H         123.2354  151.9507  147.3638 H       1  UNL111      0.0720
     29 H         124.0388  153.6211  145.6975 H       1  UNL111      0.0854
     30 H         120.4177  150.7218  148.2610 H       1  UNL111      0.1417
     31 H         121.7976  152.7746  149.0892 H       1  UNL111      0.0544
     32 H         120.1727  153.3472  148.7829 H       1  UNL111      0.0544
     33 H         122.3763  153.6925  143.9592 H       1  UNL111      0.0615
     34 H         122.2972  155.2743  144.7220 H       1  UNL111      0.0615
     35 H         121.0020  155.2742  147.4702 H       1  UNL111      0.0738
     36 H         121.9097  155.1765  148.9911 H       1  UNL111      0.0738
     37 H         120.6144  149.0288  146.7895 H       1  UNL111      0.1221
     38 H         123.6087  151.0878  144.9090 H       1  UNL111      0.0812
     39 H         122.0062  149.3239  144.7011 H       1  UNL111      0.0909
     40 H         119.8225  155.3931  143.6861 H       1  UNL111      0.0942
     41 H         122.8191  156.5311  146.4557 H       1  UNL111      0.0667
     42 H         124.4886  155.8467  146.4514 H       1  UNL111      0.0667
     43 H         123.7612  156.4261  147.9791 H       1  UNL111      0.0667
     44 H         117.4685  154.9664  144.3455 H       1  UNL111      0.1174
@<TRIPOS>UNITY_ATOM_ATTR
5 1
charge -1
8 1
charge 1
@<TRIPOS>BOND
     1     1     4    1
     2     1     5    1
     3     1     6    2
     4     1     7    2
     5     2    12    1
     6     2    20    1
     7     3    18    1
     8     4    24    1
     9     8    11    1
    10     8    16    1
    11     8    23    1
    12     9    10    1
    13     9    12    1
    14     9    13    1
    15     9    14    1
    16    10    11    1
    17    10    19    1
    18    11    15    1
    19    12    18    1
    20    13    16    1
    21    14    17   ar
    22    14    20   ar
    23    15    17    1
    24    17    22   ar
    25    18    21    1
    26    19    21    2
    27    20    24   ar
    28    22    25   ar
    29    24    25   ar
    30     3    26    1
    31     8    27    1
    32    10    28    1
    33    11    29    1
    34    12    30    1
    35    13    31    1
    36    13    32    1
    37    15    33    1
    38    15    34    1
    39    16    35    1
    40    16    36    1
    41    18    37    1
    42    19    38    1
    43    21    39    1
    44    22    40    1
    45    23    41    1
    46    23    42    1
    47    23    43    1
    48    25    44    1
@<TRIPOS>MOLECULE
44246528
 41 45 0 0 0
SMALL
GASTEIGER

@<TRIPOS>ATOM
      1 O         118.4045  154.9521  146.1499 O.3     1  UNL111     -0.5439
      2 O         120.9461  156.3039  145.3151 O.3     1  UNL111     -0.4348
      3 O         115.6184  153.8983  145.9794 O.3     1  UNL111     -0.5485
      4 N         122.1846  151.4783  145.8206 N.4     1  UNL111      0.4275
      5 C         120.2768  153.5219  146.4608 C.3     1  UNL111      0.0532
      6 C         121.2535  153.0641  147.5275 C.3     1  UNL111     -0.0026
      7 C         121.5265  151.5655  147.2054 C.3     1  UNL111     -0.0206
      8 C         119.6831  154.8730  146.8485 C.3     1  UNL111      0.0902
      9 C         120.8293  153.3837  145.0133 C.3     1  UNL111     -0.0259
     10 C         119.0217  152.7713  146.5448 C.ar    1  UNL111      0.0232
     11 C         120.1846  150.7094  147.2909 C.3     1  UNL111     -0.0213
     12 C         121.3074  151.9735  144.6963 C.3     1  UNL111     -0.0364
     13 C         118.9223  151.4342  146.8645 C.ar    1  UNL111     -0.0425
     14 C         120.7648  155.9504  146.6780 C.3     1  UNL111      0.0605
     15 C         122.3466  154.1225  147.5734 C.2     1  UNL111     -0.0869
     16 C         117.9699  153.6353  146.2844 C.ar    1  UNL111      0.1050
     17 C         122.1096  155.4055  147.1926 C.2     1  UNL111     -0.0672
     18 C         122.7863  150.1344  145.5153 C.3     1  UNL111     -0.0442
     19 C         117.6305  150.9176  146.8395 C.ar    1  UNL111     -0.0573
     20 C         116.7014  153.1252  146.2408 C.ar    1  UNL111      0.0917
     21 C         116.5304  151.7579  146.5108 C.ar    1  UNL111     -0.0140
     22 H         120.1107  156.7116  145.0181 H       1  UNL111      0.2424
     23 H         115.9375  154.8100  145.8466 H       1  UNL111      0.3393
     24 H         122.9846  152.1277  145.8502 H       1  UNL111      0.1328
     25 H         120.7955  153.0758  148.5289 H       1  UNL111      0.0720
     26 H         122.2650  151.1597  147.9068 H       1  UNL111      0.0854
     27 H         119.4229  154.8909  147.9235 H       1  UNL111      0.1417
     28 H         121.6866  154.0456  144.8533 H       1  UNL111      0.0544
     29 H         120.0800  153.6784  144.2671 H       1  UNL111      0.0544
     30 H         120.0480  150.4410  148.3467 H       1  UNL111      0.0615
     31 H         120.2781  149.7753  146.7294 H       1  UNL111      0.0615
     32 H         120.4860  151.2631  144.5620 H       1  UNL111      0.0738
     33 H         121.9155  151.9737  143.7848 H       1  UNL111      0.0738
     34 H         120.4912  156.8568  147.2282 H       1  UNL111      0.1221
     35 H         123.3211  153.8585  147.9795 H       1  UNL111      0.0812
     36 H         122.9120  156.1400  147.2537 H       1  UNL111      0.0909
     37 H         121.9856  149.4079  145.3631 H       1  UNL111      0.0667
     38 H         123.4260  149.8483  146.3539 H       1  UNL111      0.0667
     39 H         123.3887  150.2362  144.6085 H       1  UNL111      0.0667
     40 H         117.4375  149.8751  147.0855 H       1  UNL111      0.0939
     41 H         115.5247  151.3397  146.4970 H       1  UNL111      0.1139
@<TRIPOS>UNITY_ATOM_ATTR
4 1
charge 1
@<TRIPOS>BOND
     1     1     8    1
     2     1    16    1
     3     2    14    1
     4     3    20    1
     5     4     7    1
     6     4    12    1
     7     4    18    1
     8     5     6    1
     9     5     8    1
    10     5     9    1
    11     5    10    1
    12     6     7    1
    13     6    15    1
    14     7    11    1
    15     8    14    1
    16     9    12    1
    17    10    13   ar
    18    10    16   ar
    19    11    13    1
    20    13    19   ar
    21    14    17    1
    22    15    17    2
    23    16    20   ar
    24    19    21   ar
    25    20    21   ar
    26     2    22    1
    27     3    23    1
    28     4    24    1
    29     6    25    1
    30     7    26    1
    31     8    27    1
    32     9    28    1
    33     9    29    1
    34    11    30    1
    35    11    31    1
    36    12    32    1
    37    12    33    1
    38    14    34    1
    39    15    35    1
    40    17    36    1
    41    18    37    1
    42    18    38    1
    43    18    39    1
    44    19    40    1
    45    21    41    1
@<TRIPOS>MOLECULE
59037120
 51 55 0 0 0
SMALL
GASTEIGER

@<TRIPOS>ATOM
      1 O         119.7185  152.4484  147.7694 O.2     1  UNL111     -0.5430
      2 O         119.0697  150.2404  146.3468 O.3     1  UNL111     -0.4348
      3 O         117.7689  154.5158  146.9954 O.3     1  UNL111     -0.4558
      4 O         117.5135  152.5269  145.7969 O.2     1  UNL111     -0.3360
      5 O         112.3620  152.7225  145.5595 O.co2   1  UNL111     -0.5701
      6 O         113.0160  153.6586  147.5374 O.co2   1  UNL111     -0.5701
      7 N         124.7321  153.4833  146.8109 N.4     1  UNL111      0.4275
      8 C         122.0495  152.4140  147.1129 C.3     1  UNL111      0.0533
      9 C         122.9883  151.8847  146.0161 C.3     1  UNL111     -0.0026
     10 C         123.8847  153.0840  145.5771 C.3     1  UNL111     -0.0206
     11 C         120.8360  151.5378  147.5122 C.3     1  UNL111      0.0903
     12 C         122.8614  152.8676  148.3421 C.3     1  UNL111     -0.0259
     13 C         121.2917  153.5786  146.5634 C.3     1  UNL111      0.0244
     14 C         123.0882  154.2906  144.9934 C.3     1  UNL111     -0.0213
     15 C         123.9166  153.9176  148.0086 C.3     1  UNL111     -0.0364
     16 C         121.7461  154.5045  145.6366 C.3     1  UNL111     -0.0423
     17 C         120.4644  150.4404  146.4753 C.3     1  UNL111      0.0605
     18 C         122.2340  151.2281  144.8877 C.2     1  UNL111     -0.0869
     19 C         119.9900  153.5514  147.0075 C.3     1  UNL111      0.1138
     20 C         121.0714  150.5940  145.1086 C.2     1  UNL111     -0.0672
     21 C         125.8333  154.4620  146.5017 C.3     1  UNL111     -0.0442
     22 C         120.8608  155.5142  145.2465 C.3     1  UNL111     -0.0561
     23 C         119.0997  154.5198  146.5997 C.3     1  UNL111      0.1320
     24 C         119.5446  155.5341  145.7460 C.3     1  UNL111     -0.0054
     25 C         117.0505  153.4261  146.4927 C.2     1  UNL111      0.2329
     26 C         115.6303  153.5264  146.9828 C.3     1  UNL111      0.0749
     27 C         114.6560  152.8691  146.0200 C.3     1  UNL111      0.0209
     28 C         113.2032  153.1062  146.4189 C.2     1  UNL111      0.0264
     29 H         118.6351  151.1090  146.1866 H       1  UNL111      0.2424
     30 H         125.2219  152.6247  147.0975 H       1  UNL111      0.1328
     31 H         123.6412  151.1059  146.4365 H       1  UNL111      0.0720
     32 H         124.6181  152.7449  144.8347 H       1  UNL111      0.0854
     33 H         121.0281  151.0306  148.4667 H       1  UNL111      0.1417
     34 H         123.3575  151.9917  148.7811 H       1  UNL111      0.0544
     35 H         122.2058  153.2719  149.1244 H       1  UNL111      0.0544
     36 H         122.9021  154.0762  143.9325 H       1  UNL111      0.0615
     37 H         123.6683  155.2168  145.0299 H       1  UNL111      0.0615
     38 H         123.4822  154.8974  147.7866 H       1  UNL111      0.0738
     39 H         124.6128  154.0322  148.8468 H       1  UNL111      0.0738
     40 H         120.8631  149.4912  146.8570 H       1  UNL111      0.1221
     41 H         122.6436  151.2368  143.8799 H       1  UNL111      0.0812
     42 H         120.5521  150.1012  144.2879 H       1  UNL111      0.0909
     43 H         125.4016  155.4501  146.3302 H       1  UNL111      0.0667
     44 H         126.3718  154.1045  145.6206 H       1  UNL111      0.0667
     45 H         126.5066  154.4864  147.3630 H       1  UNL111      0.0667
     46 H         121.1543  156.2651  144.5156 H       1  UNL111      0.0940
     47 H         118.8484  156.3028  145.4170 H       1  UNL111      0.1154
     48 H         115.3779  154.5889  147.0878 H       1  UNL111      0.0896
     49 H         115.5824  153.0620  147.9740 H       1  UNL111      0.0896
     50 H         114.8343  151.7878  145.9800 H       1  UNL111      0.0627
     51 H         114.8079  153.2612  145.0066 H       1  UNL111      0.0627
@<TRIPOS>UNITY_ATOM_ATTR
5 1
charge -1
7 1
charge 1
@<TRIPOS>BOND
     1     1    11    1
     2     1    19    1
     3     2    17    1
     4     3    23    1
     5     3    25    1
     6     4    25    2
     7     5    28   ar
     8     6    28   ar
     9     7    10    1
    10     7    15    1
    11     7    21    1
    12     8     9    1
    13     8    11    1
    14     8    12    1
    15     8    13    1
    16     9    10    1
    17     9    18    1
    18    10    14    1
    19    11    17    1
    20    12    15    1
    21    13    16   ar
    22    13    19   ar
    23    14    16    1
    24    16    22   ar
    25    17    20    1
    26    18    20    2
    27    19    23   ar
    28    22    24   ar
    29    23    24   ar
    30    25    26    1
    31    26    27    1
    32    27    28    1
    33     2    29    1
    34     7    30    1
    35     9    31    1
    36    10    32    1
    37    11    33    1
    38    12    34    1
    39    12    35    1
    40    14    36    1
    41    14    37    1
    42    15    38    1
    43    15    39    1
    44    17    40    1
    45    18    41    1
    46    20    42    1
    47    21    43    1
    48    21    44    1
    49    21    45    1
    50    22    46    1
    51    24    47    1
    52    26    48    1
    53    26    49    1
    54    27    50    1
    55    27    51    1
@<TRIPOS>MOLECULE
69314272
 64 70 0 0 0
SMALL
GASTEIGER

@<TRIPOS>ATOM
      1 O         121.2755  151.4303  147.5096 O.2     1  UNL111     -0.5437
      2 O         123.2045  149.6402  147.5426 O.3     1  UNL111     -0.4348
      3 O         119.3004  150.5746  145.6871 O.2     1  UNL111     -0.5639
      4 O         114.2722  151.5797  146.0365 O.2     1  UNL111     -0.3619
      5 O         118.1338  153.2397  147.9223 O.2     1  UNL111     -0.3619
      6 N         123.4754  156.0857  146.6230 N.4     1  UNL111      0.4275
      7 N         116.3467  151.9990  147.0293 N.am    1  UNL111     -0.2210
      8 C         122.7532  153.3385  147.2308 C.3     1  UNL111      0.0532
      9 C         124.1700  153.6976  146.7556 C.3     1  UNL111     -0.0026
     10 C         124.0231  154.9074  145.7815 C.3     1  UNL111     -0.0206
     11 C         122.5575  151.9888  147.9578 C.3     1  UNL111      0.0902
     12 C         122.1409  154.5112  148.0244 C.3     1  UNL111     -0.0259
     13 C         121.9095  153.0531  146.0325 C.3     1  UNL111      0.0235
     14 C         123.1366  154.6139  144.5315 C.3     1  UNL111     -0.0213
     15 C         122.1215  155.8233  147.2454 C.3     1  UNL111     -0.0364
     16 C         122.0012  153.6635  144.7944 C.3     1  UNL111     -0.0425
     17 C         123.7004  150.9572  147.7435 C.3     1  UNL111      0.0605
     18 C         124.8941  152.5096  146.1767 C.2     1  UNL111     -0.0869
     19 C         121.0521  152.0039  146.2827 C.3     1  UNL111      0.1063
     20 C         124.6594  151.2677  146.6292 C.2     1  UNL111     -0.0672
     21 C         121.0989  153.2497  143.8137 C.3     1  UNL111     -0.0570
     22 C         123.5230  157.4147  145.9162 C.3     1  UNL111     -0.0442
     23 C         120.1292  151.5969  145.3397 C.3     1  UNL111      0.0940
     24 C         120.1595  152.2331  144.0911 C.3     1  UNL111     -0.0127
     25 C         118.0516  150.5150  145.0007 C.3     1  UNL111      0.0415
     26 C         117.0268  149.8607  145.9209 C.3     1  UNL111     -0.0059
     27 C         116.8112  150.6353  147.2274 C.3     1  UNL111      0.0303
     28 C         115.1319  152.3154  146.4791 C.2     1  UNL111      0.2117
     29 C         117.0363  153.1202  147.4091 C.2     1  UNL111      0.2117
     30 C         115.0349  153.7728  146.4907 C.3     1  UNL111      0.0827
     31 C         116.1915  154.2622  147.0670 C.3     1  UNL111      0.0827
     32 C         114.0324  154.6094  146.0415 C.3     1  UNL111     -0.0417
     33 C         116.4074  155.6158  147.2409 C.3     1  UNL111     -0.0417
     34 C         114.2296  155.9852  146.2000 C.3     1  UNL111     -0.0781
     35 C         115.4055  156.4843  146.7980 C.3     1  UNL111     -0.0781
     36 H         122.2437  149.7154  147.3764 H       1  UNL111      0.2424
     37 H         124.1322  156.1936  147.4085 H       1  UNL111      0.1328
     38 H         124.7729  154.0242  147.6154 H       1  UNL111      0.0720
     39 H         125.0148  155.2389  145.4493 H       1  UNL111      0.0854
     40 H         122.4525  152.1443  149.0394 H       1  UNL111      0.1417
     41 H         122.7227  154.6554  148.9447 H       1  UNL111      0.0544
     42 H         121.1156  154.2829  148.3435 H       1  UNL111      0.0544
     43 H         123.7799  154.1406  143.7780 H       1  UNL111      0.0615
     44 H         122.7508  155.5342  144.0838 H       1  UNL111      0.0615
     45 H         121.3738  155.8292  146.4463 H       1  UNL111      0.0738
     46 H         121.9110  156.6602  147.9205 H       1  UNL111      0.0738
     47 H         124.3027  150.9254  148.6603 H       1  UNL111      0.1221
     48 H         125.6490  152.6551  145.4065 H       1  UNL111      0.0812
     49 H         125.2190  150.4266  146.2223 H       1  UNL111      0.0909
     50 H         121.1304  153.6748  142.8119 H       1  UNL111      0.0939
     51 H         122.7478  157.4434  145.1480 H       1  UNL111      0.0667
     52 H         124.5185  157.5355  145.4820 H       1  UNL111      0.0667
     53 H         123.3479  158.1938  146.6633 H       1  UNL111      0.0667
     54 H         119.4948  151.9177  143.2907 H       1  UNL111      0.1142
     55 H         118.1759  149.9081  144.0967 H       1  UNL111      0.1148
     56 H         117.6890  151.5088  144.7109 H       1  UNL111      0.1148
     57 H         117.3686  148.8515  146.1812 H       1  UNL111      0.0574
     58 H         116.0802  149.7520  145.3803 H       1  UNL111      0.0574
     59 H         116.0424  150.1152  147.8113 H       1  UNL111      0.0806
     60 H         117.7295  150.6483  147.8243 H       1  UNL111      0.0806
     61 H         113.1291  154.2126  145.5885 H       1  UNL111      0.0979
     62 H         117.3126  155.9838  147.7101 H       1  UNL111      0.0979
     63 H         113.4619  156.6809  145.8638 H       1  UNL111      0.0885
     64 H         115.5267  157.5594  146.9194 H       1  UNL111      0.0885
@<TRIPOS>UNITY_ATOM_ATTR
6 1
charge 1
@<TRIPOS>BOND
     1     1    11    1
     2     1    19    1
     3     2    17    1
     4     3    23    1
     5     3    25    1
     6     4    28    2
     7     5    29    2
     8     6    10    1
     9     6    15    1
    10     6    22    1
    11     7    27    1
    12     7    28   am
    13     7    29   am
    14     8     9    1
    15     8    11    1
    16     8    12    1
    17     8    13    1
    18     9    10    1
    19     9    18    1
    20    10    14    1
    21    11    17    1
    22    12    15    1
    23    13    16   ar
    24    13    19   ar
    25    14    16    1
    26    16    21   ar
    27    17    20    1
    28    18    20    2
    29    19    23   ar
    30    21    24   ar
    31    23    24   ar
    32    25    26    1
    33    26    27    1
    34    28    30    1
    35    29    31    1
    36    30    31   ar
    37    30    32   ar
    38    31    33   ar
    39    32    34   ar
    40    33    35   ar
    41    34    35   ar
    42     2    36    1
    43     6    37    1
    44     9    38    1
    45    10    39    1
    46    11    40    1
    47    12    41    1
    48    12    42    1
    49    14    43    1
    50    14    44    1
    51    15    45    1
    52    15    46    1
    53    17    47    1
    54    18    48    1
    55    20    49    1
    56    21    50    1
    57    22    51    1
    58    22    52    1
    59    22    53    1
    60    24    54    1
    61    25    55    1
    62    25    56    1
    63    26    57    1
    64    26    58    1
    65    27    59    1
    66    27    60    1
    67    32    61    1
    68    33    62    1
    69    34    63    1
    70    35    64    1
@<TRIPOS>MOLECULE
137219748
 55 60 0 0 0
SMALL
GASTEIGER

@<TRIPOS>ATOM
      1 O         118.0132  155.1450  147.7342 O.3     1  UNL111     -0.5423
      2 O         117.7191  156.7573  145.6646 O.3     1  UNL111     -0.4348
      3 O         120.8540  154.9354  148.2049 O.3     1  UNL111     -0.5394
      4 N         115.6708  150.6323  146.5482 N.4     1  UNL111      0.4275
      5 N         122.2023  152.6785  147.1301 N.2     1  UNL111     -0.1995
      6 N         122.7891  153.1129  146.1148 N.2     1  UNL111     -0.2179
      7 N         128.3821  152.5347  146.2471 N.pl3   1  UNL111     -0.4132
      8 C         116.6152  153.3930  146.7868 C.3     1  UNL111      0.0536
      9 C         115.9727  152.9040  145.4824 C.3     1  UNL111     -0.0025
     10 C         116.3099  151.3876  145.3557 C.3     1  UNL111     -0.0204
     11 C         116.7433  154.9188  147.0137 C.3     1  UNL111      0.0905
     12 C         115.9593  152.6789  147.9881 C.3     1  UNL111     -0.0258
     13 C         118.0750  153.0777  146.7612 C.ar    1  UNL111      0.0272
     14 C         117.8398  151.0771  145.2999 C.3     1  UNL111     -0.0195
     15 C         116.0629  151.1569  147.9127 C.3     1  UNL111     -0.0364
     16 C         118.6750  151.9893  146.1550 C.ar    1  UNL111     -0.0302
     17 C         116.6854  155.7832  145.7181 C.3     1  UNL111      0.0605
     18 C         116.3855  153.7317  144.2947 C.2     1  UNL111     -0.0869
     19 C         118.7950  154.0744  147.3802 C.ar    1  UNL111      0.1187
     20 C         116.7104  155.0273  144.4206 C.2     1  UNL111     -0.0672
     21 C         120.0617  151.8751  146.2886 C.ar    1  UNL111     -0.0065
     22 C         114.1803  150.4409  146.4052 C.3     1  UNL111     -0.0442
     23 C         120.1590  153.9676  147.5412 C.ar    1  UNL111      0.1449
     24 C         120.8141  152.8525  146.9899 C.ar    1  UNL111      0.1280
     25 C         124.1905  152.9718  146.2018 C.ar    1  UNL111      0.0578
     26 C         124.9108  153.0606  147.4005 C.ar    1  UNL111     -0.0292
     27 C         124.9053  152.7646  145.0183 C.ar    1  UNL111     -0.0292
     28 C         126.3044  152.9254  147.4123 C.ar    1  UNL111     -0.0483
     29 C         126.2990  152.6334  145.0317 C.ar    1  UNL111     -0.0483
     30 C         127.0132  152.7368  146.2256 C.ar    1  UNL111     -0.0250
     31 H         118.3797  156.5314  146.3439 H       1  UNL111      0.2424
     32 H         120.2210  155.6164  148.4941 H       1  UNL111      0.3417
     33 H         116.0496  149.6751  146.5080 H       1  UNL111      0.1328
     34 H         128.9014  152.7417  147.0904 H       1  UNL111      0.1722
     35 H         128.8998  152.5401  145.3780 H       1  UNL111      0.1722
     36 H         114.8826  153.0177  145.5467 H       1  UNL111      0.0720
     37 H         115.8439  150.9571  144.4609 H       1  UNL111      0.0854
     38 H         115.9500  155.2732  147.6844 H       1  UNL111      0.1417
     39 H         114.9012  152.9667  148.0394 H       1  UNL111      0.0544
     40 H         116.4078  153.0067  148.9352 H       1  UNL111      0.0544
     41 H         118.1715  151.2108  144.2621 H       1  UNL111      0.0617
     42 H         118.0309  150.0322  145.5708 H       1  UNL111      0.0617
     43 H         117.0831  150.8087  148.1038 H       1  UNL111      0.0738
     44 H         115.4163  150.6775  148.6559 H       1  UNL111      0.0738
     45 H         115.7402  156.3400  145.7285 H       1  UNL111      0.1221
     46 H         116.3733  153.2895  143.2997 H       1  UNL111      0.0812
     47 H         116.9635  155.6062  143.5326 H       1  UNL111      0.0909
     48 H         120.5984  151.0452  145.8308 H       1  UNL111      0.1108
     49 H         113.6803  151.4042  146.5221 H       1  UNL111      0.0667
     50 H         113.8569  149.7421  147.1814 H       1  UNL111      0.0667
     51 H         113.9851  150.0115  145.4194 H       1  UNL111      0.0667
     52 H         124.3899  153.2353  148.3383 H       1  UNL111      0.1057
     53 H         124.3731  152.6988  144.0731 H       1  UNL111      0.1057
     54 H         126.8304  152.9768  148.3619 H       1  UNL111      0.1007
     55 H         126.8216  152.4541  144.0959 H       1  UNL111      0.1007
@<TRIPOS>UNITY_ATOM_ATTR
4 1
charge 1
@<TRIPOS>BOND
     1     1    11    1
     2     1    19    1
     3     2    17    1
     4     3    23    1
     5     4    10    1
     6     4    15    1
     7     4    22    1
     8     5     6    2
     9     5    24    1
    10     6    25    1
    11     7    30    1
    12     8     9    1
    13     8    11    1
    14     8    12    1
    15     8    13    1
    16     9    10    1
    17     9    18    1
    18    10    14    1
    19    11    17    1
    20    12    15    1
    21    13    16   ar
    22    13    19   ar
    23    14    16    1
    24    16    21   ar
    25    17    20    1
    26    18    20    2
    27    19    23   ar
    28    21    24   ar
    29    23    24   ar
    30    25    26   ar
    31    25    27   ar
    32    26    28   ar
    33    27    29   ar
    34    28    30   ar
    35    29    30   ar
    36     2    31    1
    37     3    32    1
    38     4    33    1
    39     7    34    1
    40     7    35    1
    41     9    36    1
    42    10    37    1
    43    11    38    1
    44    12    39    1
    45    12    40    1
    46    14    41    1
    47    14    42    1
    48    15    43    1
    49    15    44    1
    50    17    45    1
    51    18    46    1
    52    20    47    1
    53    21    48    1
    54    22    49    1
    55    22    50    1
    56    22    51    1
    57    26    52    1
    58    27    53    1
    59    28    54    1
    60    29    55    1
@<TRIPOS>MOLECULE
5491646
 52 56 0 0 0
SMALL
GASTEIGER

@<TRIPOS>ATOM
      1 O         119.3309  153.9202  147.8841 O.2     1  UNL111     -0.5395
      2 O         117.4241  152.7044  146.5664 O.3     1  UNL111     -0.5026
      3 O         119.0871  156.7067  147.0814 O.2     1  UNL111     -0.5485
      4 O         115.9805  150.9411  146.8019 O.2     1  UNL111     -0.3397
      5 N         123.8302  151.6223  146.6296 N.4     1  UNL111      0.4275
      6 C         121.0752  152.4107  147.1276 C.3     1  UNL111      0.0568
      7 C         121.4139  151.3349  146.0865 C.3     1  UNL111     -0.0012
      8 C         122.8003  151.7164  145.4779 C.3     1  UNL111     -0.0204
      9 C         119.6201  152.4935  147.6532 C.3     1  UNL111      0.1046
     10 C         122.1079  152.3743  148.2752 C.3     1  UNL111     -0.0252
     11 C         121.1207  153.7511  146.4737 C.3     1  UNL111      0.0241
     12 C         122.8208  153.1099  144.7752 C.3     1  UNL111     -0.0213
     13 C         123.5485  152.5436  147.7951 C.3     1  UNL111     -0.0363
     14 C         118.5459  151.8212  146.7407 C.3     1  UNL111      0.1112
     15 C         121.9539  154.1432  145.4400 C.3     1  UNL111     -0.0424
     16 C         120.3180  151.1535  145.0726 C.2     1  UNL111     -0.0823
     17 C         120.1432  154.5688  146.9928 C.3     1  UNL111      0.1061
     18 C         119.0330  151.3884  145.3777 C.2     1  UNL111     -0.0495
     19 C         125.2639  151.7207  146.1744 C.3     1  UNL111     -0.0442
     20 C         121.8438  155.4651  144.9995 C.3     1  UNL111     -0.0573
     21 C         120.0319  155.8732  146.5750 C.3     1  UNL111      0.0919
     22 C         120.8975  156.3331  145.5831 C.3     1  UNL111     -0.0140
     23 C         116.1891  152.1323  146.6247 C.2     1  UNL111      0.2180
     24 C         115.1279  153.1944  146.4629 C.3     1  UNL111      0.0591
     25 C         113.7618  152.5844  146.1596 C.3     1  UNL111     -0.0349
     26 C         112.6967  153.6551  145.9900 C.3     1  UNL111     -0.0642
     27 H         118.5578  156.1819  147.7110 H       1  UNL111      0.3393
     28 H         123.7480  150.6642  146.9975 H       1  UNL111      0.1328
     29 H         121.5183  150.3616  146.5879 H       1  UNL111      0.0721
     30 H         123.1140  150.9478  144.7605 H       1  UNL111      0.0854
     31 H         119.5510  152.0163  148.6397 H       1  UNL111      0.1477
     32 H         122.0189  151.4135  148.7996 H       1  UNL111      0.0545
     33 H         121.8996  153.1503  149.0233 H       1  UNL111      0.0545
     34 H         122.4278  152.9707  143.7593 H       1  UNL111      0.0615
     35 H         123.8394  153.4934  144.6690 H       1  UNL111      0.0615
     36 H         123.7684  153.5679  147.4785 H       1  UNL111      0.0738
     37 H         124.2469  152.2732  148.5949 H       1  UNL111      0.0738
     38 H         118.2376  150.9031  147.2589 H       1  UNL111      0.1530
     39 H         120.5605  150.7742  144.0811 H       1  UNL111      0.0821
     40 H         118.2660  151.1955  144.6283 H       1  UNL111      0.0975
     41 H         125.4853  152.7542  145.9007 H       1  UNL111      0.0667
     42 H         125.4000  151.0457  145.3260 H       1  UNL111      0.0667
     43 H         125.8981  151.4033  147.0067 H       1  UNL111      0.0667
     44 H         122.4610  155.8363  144.1833 H       1  UNL111      0.0939
     45 H         120.8105  157.3588  145.2306 H       1  UNL111      0.1139
     46 H         115.4206  153.8554  145.6391 H       1  UNL111      0.0853
     47 H         115.0880  153.7781  147.3890 H       1  UNL111      0.0853
     48 H         113.4648  151.9056  146.9681 H       1  UNL111      0.0385
     49 H         113.8187  151.9807  145.2457 H       1  UNL111      0.0385
     50 H         112.5862  154.2458  146.9049 H       1  UNL111      0.0264
     51 H         111.7296  153.1950  145.7640 H       1  UNL111      0.0264
     52 H         112.9495  154.3345  145.1698 H       1  UNL111      0.0264
@<TRIPOS>UNITY_ATOM_ATTR
5 1
charge 1
@<TRIPOS>BOND
     1     1     9    1
     2     1    17    1
     3     2    14    1
     4     2    23    1
     5     3    21    1
     6     4    23    2
     7     5     8    1
     8     5    13    1
     9     5    19    1
    10     6     7    1
    11     6     9    1
    12     6    10    1
    13     6    11    1
    14     7     8    1
    15     7    16    1
    16     8    12    1
    17     9    14    1
    18    10    13    1
    19    11    15   ar
    20    11    17   ar
    21    12    15    1
    22    14    18    1
    23    15    20   ar
    24    16    18    2
    25    17    21   ar
    26    20    22   ar
    27    21    22   ar
    28    23    24    1
    29    24    25    1
    30    25    26    1
    31     3    27    1
    32     5    28    1
    33     7    29    1
    34     8    30    1
    35     9    31    1
    36    10    32    1
    37    10    33    1
    38    12    34    1
    39    12    35    1
    40    13    36    1
    41    13    37    1
    42    14    38    1
    43    16    39    1
    44    18    40    1
    45    19    41    1
    46    19    42    1
    47    19    43    1
    48    20    44    1
    49    22    45    1
    50    24    46    1
    51    24    47    1
    52    25    48    1
    53    25    49    1
    54    26    50    1
    55    26    51    1
    56    26    52    1
@<TRIPOS>MOLECULE
15677950
 47 51 0 0 0
SMALL
GASTEIGER

@<TRIPOS>ATOM
      1 S         116.0468  154.0591  146.3332 S.O2    1  UNL111      0.1864
      2 F         114.9092  151.6697  146.6516 F       1  UNL111     -0.1247
      3 F         115.1953  152.7799  148.5088 F       1  UNL111     -0.1247
      4 F         113.5985  153.3552  147.1293 F       1  UNL111     -0.1247
      5 O         119.7007  151.7680  147.4276 O.2     1  UNL111     -0.5416
      6 O         119.7801  150.1462  145.3809 O.3     1  UNL111     -0.4348
      7 O         117.4069  153.1892  146.5832 O.2     1  UNL111     -0.3623
      8 O         116.1784  155.3094  147.0669 O.2     1  UNL111     -0.1619
      9 O         115.7848  154.0812  144.9024 O.2     1  UNL111     -0.1619
     10 N         124.2033  154.3051  147.1558 N.4     1  UNL111      0.4275
     11 C         121.9984  152.4088  147.0458 C.3     1  UNL111      0.0535
     12 C         123.2543  152.2162  146.1880 C.3     1  UNL111     -0.0026
     13 C         123.7687  153.6429  145.8231 C.3     1  UNL111     -0.0206
     14 C         121.0506  151.2055  147.2329 C.3     1  UNL111      0.0905
     15 C         122.4023  153.0690  148.3844 C.3     1  UNL111     -0.0258
     16 C         121.0191  153.2988  146.3603 C.3     1  UNL111      0.0264
     17 C         122.7350  154.5080  145.0358 C.3     1  UNL111     -0.0213
     18 C         123.1088  154.4132  148.1957 C.3     1  UNL111     -0.0364
     19 C         121.3129  154.3252  145.4863 C.3     1  UNL111     -0.0419
     20 C         121.0342  150.1756  146.0570 C.3     1  UNL111      0.0605
     21 C         123.0477  151.2990  145.0192 C.2     1  UNL111     -0.0869
     22 C         119.7276  152.9265  146.6796 C.3     1  UNL111      0.1251
     23 C         122.0646  150.3883  144.9866 C.2     1  UNL111     -0.0672
     24 C         120.2328  155.0547  144.9916 C.3     1  UNL111     -0.0542
     25 C         124.9311  155.6130  146.9757 C.3     1  UNL111     -0.0442
     26 C         118.6421  153.6396  146.2140 C.3     1  UNL111      0.1742
     27 C         118.9092  154.7256  145.3683 C.3     1  UNL111      0.0056
     28 C         114.8903  152.9253  147.1859 C.3     1  UNL111      0.5283
     29 H         119.0929  150.3513  146.0416 H       1  UNL111      0.2424
     30 H         124.9124  153.6753  147.5562 H       1  UNL111      0.1328
     31 H         124.0297  151.7237  146.7939 H       1  UNL111      0.0720
     32 H         124.6929  153.5664  145.2368 H       1  UNL111      0.0854
     33 H         121.3121  150.6664  148.1524 H       1  UNL111      0.1417
     34 H         123.0698  152.3882  148.9294 H       1  UNL111      0.0544
     35 H         121.5317  153.2242  149.0349 H       1  UNL111      0.0544
     36 H         122.7786  154.1969  143.9837 H       1  UNL111      0.0615
     37 H         122.9993  155.5690  145.0615 H       1  UNL111      0.0615
     38 H         122.4223  155.2058  147.8818 H       1  UNL111      0.0738
     39 H         123.5861  154.7232  149.1319 H       1  UNL111      0.0738
     40 H         121.1855  149.1747  146.4778 H       1  UNL111      0.1221
     41 H         123.7515  151.3321  144.1887 H       1  UNL111      0.0812
     42 H         121.9816  149.7295  144.1219 H       1  UNL111      0.0909
     43 H         120.3868  155.8685  144.2841 H       1  UNL111      0.0942
     44 H         124.2154  156.3871  146.6917 H       1  UNL111      0.0667
     45 H         125.6958  155.4756  146.2073 H       1  UNL111      0.0667
     46 H         125.4036  155.8631  147.9296 H       1  UNL111      0.0667
     47 H         118.1059  155.3216  144.9383 H       1  UNL111      0.1176
@<TRIPOS>UNITY_ATOM_ATTR
10 1
charge 1
@<TRIPOS>BOND
     1     1     7    1
     2     1     8    2
     3     1     9    2
     4     1    28    1
     5     2    28    1
     6     3    28    1
     7     4    28    1
     8     5    14    1
     9     5    22    1
    10     6    20    1
    11     7    26    1
    12    10    13    1
    13    10    18    1
    14    10    25    1
    15    11    12    1
    16    11    14    1
    17    11    15    1
    18    11    16    1
    19    12    13    1
    20    12    21    1
    21    13    17    1
    22    14    20    1
    23    15    18    1
    24    16    19   ar
    25    16    22   ar
    26    17    19    1
    27    19    24   ar
    28    20    23    1
    29    21    23    2
    30    22    26   ar
    31    24    27   ar
    32    26    27   ar
    33     6    29    1
    34    10    30    1
    35    12    31    1
    36    13    32    1
    37    14    33    1
    38    15    34    1
    39    15    35    1
    40    17    36    1
    41    17    37    1
    42    18    38    1
    43    18    39    1
    44    20    40    1
    45    21    41    1
    46    23    42    1
    47    24    43    1
    48    25    44    1
    49    25    45    1
    50    25    46    1
    51    27    47    1
@<TRIPOS>MOLECULE
23450082
 44 48 0 0 0
SMALL
GASTEIGER

@<TRIPOS>ATOM
      1 S         115.8064  152.9556  146.3993 S.3     1  UNL111      0.0055
      2 O         118.9772  153.9196  144.9480 O.2     1  UNL111     -0.5417
      3 O         119.1535  156.8084  146.4149 O.3     1  UNL111     -0.4348
      4 O         116.8368  152.0097  145.5298 O.2     1  UNL111     -0.4142
      5 O         114.5325  152.7875  145.7060 O.co2   1  UNL111     -0.2184
      6 O         115.8372  152.3832  147.7454 O.2     1  UNL111     -0.3434
      7 O         116.3626  154.3070  146.3127 O.2     1  UNL111     -0.3434
      8 N         123.7341  152.3495  145.9589 N.4     1  UNL111      0.4275
      9 C         121.2095  153.7633  145.7636 C.3     1  UNL111      0.0535
     10 C         122.2492  154.1552  146.8178 C.3     1  UNL111     -0.0026
     11 C         122.9740  152.8381  147.2245 C.3     1  UNL111     -0.0206
     12 C         120.0594  154.7490  145.4949 C.3     1  UNL111      0.0905
     13 C         121.9451  153.3105  144.4846 C.3     1  UNL111     -0.0258
     14 C         120.3553  152.6335  146.2276 C.3     1  UNL111      0.0261
     15 C         122.0310  151.7441  147.8182 C.3     1  UNL111     -0.0213
     16 C         122.8595  152.1131  144.7416 C.3     1  UNL111     -0.0364
     17 C         120.7001  151.6476  147.1308 C.3     1  UNL111     -0.0420
     18 C         119.5336  155.4795  146.7685 C.3     1  UNL111      0.0605
     19 C         121.7070  154.9698  147.9554 C.2     1  UNL111     -0.0869
     20 C         119.0906  152.7627  145.6850 C.3     1  UNL111      0.1227
     21 C         120.5139  155.5795  147.9038 C.2     1  UNL111     -0.0672
     22 C         119.7195  150.7003  147.4303 C.3     1  UNL111     -0.0545
     23 C         124.6524  151.1873  146.2143 C.3     1  UNL111     -0.0442
     24 C         118.1069  151.8598  145.9970 C.3     1  UNL111      0.1585
     25 C         118.4348  150.7977  146.8496 C.3     1  UNL111      0.0032
     26 H         118.2264  156.7158  146.1074 H       1  UNL111      0.2424
     27 H         124.3558  153.1283  145.7037 H       1  UNL111      0.1328
     28 H         122.9935  154.8170  146.3491 H       1  UNL111      0.0720
     29 H         123.7653  153.0593  147.9517 H       1  UNL111      0.0854
     30 H         120.3338  155.4778  144.7223 H       1  UNL111      0.1417
     31 H         122.5420  154.1465  144.0968 H       1  UNL111      0.0544
     32 H         121.2430  153.0442  143.6839 H       1  UNL111      0.0544
     33 H         121.8327  152.0127  148.8642 H       1  UNL111      0.0615
     34 H         122.5152  150.7635  147.8312 H       1  UNL111      0.0615
     35 H         122.3027  151.1845  144.9023 H       1  UNL111      0.0738
     36 H         123.5333  151.9644  143.8905 H       1  UNL111      0.0738
     37 H         118.6403  154.9920  147.1716 H       1  UNL111      0.1221
     38 H         122.3298  155.1282  148.8336 H       1  UNL111      0.0812
     39 H         120.1796  156.1792  148.7493 H       1  UNL111      0.0909
     40 H         119.9033  149.9098  148.1545 H       1  UNL111      0.0942
     41 H         124.0588  150.2802  146.3458 H       1  UNL111      0.0667
     42 H         125.2448  151.4078  147.1057 H       1  UNL111      0.0667
     43 H         125.3109  151.0873  145.3471 H       1  UNL111      0.0667
     44 H         117.6559  150.0902  147.1306 H       1  UNL111      0.1174
@<TRIPOS>UNITY_ATOM_ATTR
5 1
charge -1
8 1
charge 1
@<TRIPOS>BOND
     1     1     4    1
     2     1     5    1
     3     1     6    2
     4     1     7    2
     5     2    12    1
     6     2    20    1
     7     3    18    1
     8     4    24    1
     9     8    11    1
    10     8    16    1
    11     8    23    1
    12     9    10    1
    13     9    12    1
    14     9    13    1
    15     9    14    1
    16    10    11    1
    17    10    19    1
    18    11    15    1
    19    12    18    1
    20    13    16    1
    21    14    17   ar
    22    14    20   ar
    23    15    17    1
    24    17    22   ar
    25    18    21    1
    26    19    21    2
    27    20    24   ar
    28    22    25   ar
    29    24    25   ar
    30     3    26    1
    31     8    27    1
    32    10    28    1
    33    11    29    1
    34    12    30    1
    35    13    31    1
    36    13    32    1
    37    15    33    1
    38    15    34    1
    39    16    35    1
    40    16    36    1
    41    18    37    1
    42    19    38    1
    43    21    39    1
    44    22    40    1
    45    23    41    1
    46    23    42    1
    47    23    43    1
    48    25    44    1
@<TRIPOS>MOLECULE
118701623
 41 45 0 0 0
SMALL
GASTEIGER

@<TRIPOS>ATOM
      1 O         117.7903  152.4656  147.7000 O.2     1  UNL1111    -0.5439
      2 O         123.6297  152.2651  147.0453 O.co2   1  UNL1111    -0.7565
      3 O         117.0758  150.4297  146.1856 O.3     1  UNL1111    -0.4348
      4 O         115.9862  154.6813  147.1865 O.2     1  UNL1111    -0.5485
      5 N         122.8983  153.3955  146.7277 N.3     1  UNL1111     0.4023
      6 C         120.1401  152.4011  147.0330 C.3     1  UNL1111     0.0528
      7 C         121.0525  151.8887  145.9081 C.3     1  UNL1111    -0.0053
      8 C         121.9845  153.0822  145.5200 C.3     1  UNL1111    -0.0391
      9 C         118.9114  151.5415  147.4113 C.3     1  UNL1111     0.0902
     10 C         120.9797  152.7903  148.2674 C.3     1  UNL1111    -0.0286
     11 C         119.3994  153.5993  146.5359 C.3     1  UNL1111     0.0232
     12 C         122.0827  153.7980  147.9388 C.3     1  UNL1111    -0.0549
     13 C         121.1949  154.3104  144.9680 C.3     1  UNL1111    -0.0241
     14 C         119.8669  154.5450  145.6393 C.3     1  UNL1111    -0.0427
     15 C         118.4921  150.4993  146.3325 C.3     1  UNL1111     0.0605
     16 C         120.2634  151.3006  144.7605 C.2     1  UNL1111    -0.0871
     17 C         118.1092  153.6041  147.0090 C.3     1  UNL1111     0.1050
     18 C         119.0904  150.6817  144.9674 C.2     1  UNL1111    -0.0672
     19 C         123.8976  154.4743  146.4108 C.3     1  UNL1111    -0.0627
     20 C         119.0086  155.6005  145.3166 C.3     1  UNL1111    -0.0573
     21 C         117.2588  154.6432  146.7101 C.3     1  UNL1111     0.0917
     22 C         117.7134  155.6596  145.8712 C.3     1  UNL1111    -0.0140
     23 H         116.7413  151.3304  146.3495 H       1  UNL1111     0.2424
     24 H         115.8876  153.9066  147.7712 H       1  UNL1111     0.3393
     25 H         121.6666  151.0624  146.2910 H       1  UNL1111     0.0718
     26 H         122.6938  152.7535  144.7478 H       1  UNL1111     0.0821
     27 H         119.0911  150.9964  148.3468 H       1  UNL1111     0.1417
     28 H         121.4375  151.8824  148.6814 H       1  UNL1111     0.0542
     29 H         120.3501  153.2088  149.0632 H       1  UNL1111     0.0542
     30 H         121.6781  154.7950  147.7379 H       1  UNL1111     0.0705
     31 H         122.7893  153.8785  148.7734 H       1  UNL1111     0.0705
     32 H         120.9835  154.1156  143.9081 H       1  UNL1111     0.0613
     33 H         121.7843  155.2291  145.0045 H       1  UNL1111     0.0613
     34 H         118.8140  149.5080  146.6753 H       1  UNL1111     0.1221
     35 H         120.6884  151.3306  143.7603 H       1  UNL1111     0.0811
     36 H         118.5695  150.2193  144.1323 H       1  UNL1111     0.0909
     37 H         124.3970  154.2015  145.4777 H       1  UNL1111     0.0634
     38 H         124.6174  154.5042  147.2345 H       1  UNL1111     0.0634
     39 H         123.3831  155.4326  146.3304 H       1  UNL1111     0.0634
     40 H         119.3178  156.3699  144.6124 H       1  UNL1111     0.0939
     41 H         117.0485  156.4794  145.6114 H       1  UNL1111     0.1139
@<TRIPOS>UNITY_ATOM_ATTR
2 1
charge -1
5 1
charge 1
@<TRIPOS>BOND
     1     1     9    1
     2     1    17    1
     3     2     5    1
     4     3    15    1
     5     4    21    1
     6     5     8    1
     7     5    12    1
     8     5    19    1
     9     6     7    1
    10     6     9    1
    11     6    10    1
    12     6    11    1
    13     7     8    1
    14     7    16    1
    15     8    13    1
    16     9    15    1
    17    10    12    1
    18    11    14   ar
    19    11    17   ar
    20    13    14    1
    21    14    20   ar
    22    15    18    1
    23    16    18    2
    24    17    21   ar
    25    20    22   ar
    26    21    22   ar
    27     3    23    1
    28     4    24    1
    29     7    25    1
    30     8    26    1
    31     9    27    1
    32    10    28    1
    33    10    29    1
    34    12    30    1
    35    12    31    1
    36    13    32    1
    37    13    33    1
    38    15    34    1
    39    16    35    1
    40    18    36    1
    41    19    37    1
    42    19    38    1
    43    19    39    1
    44    20    40    1
    45    22    41    1
@<TRIPOS>MOLECULE
129677303
 28 32 0 0 0
SMALL
GASTEIGER

@<TRIPOS>ATOM
      1 O         118.3891  151.7893  146.5225 O.2     1  UNL111     -0.5326
      2 O         117.0080  153.8223  148.1198 O.3     1  UNL111     -0.2658
      3 O         119.0733  148.8203  146.4244 O.co2   1  UNL111     -0.7919
      4 O         117.8822  155.9657  145.4531 O.2     1  UNL111     -0.4008
      5 N         122.5485  155.3644  145.9121 N.4     1  UNL111      0.4584
      6 C         120.0880  153.4361  146.2350 C.3     1  UNL111      0.1141
      7 C         120.8713  154.2627  147.3369 C.3     1  UNL111      0.0730
      8 C         118.6401  153.1912  146.5001 C.3     1  UNL111      0.1907
      9 C         122.3125  154.3569  146.9682 C.3     1  UNL111      0.0595
     10 C         120.3755  154.1329  144.9636 C.3     1  UNL111      0.0781
     11 C         120.6420  152.0625  146.2608 C.2     1  UNL111      0.0269
     12 C         117.8331  154.2890  147.2220 C.3     1  UNL111      0.2237
     13 C         122.7354  152.9809  146.7063 C.3     1  UNL111      0.0664
     14 C         121.5800  155.0415  144.8465 C.3     1  UNL111      0.0622
     15 C         121.9988  151.7822  146.4073 C.2     1  UNL111     -0.0029
     16 C         120.0562  155.1719  148.0379 C.2     1  UNL111     -0.0020
     17 C         119.6219  151.1304  146.3620 C.2     1  UNL111      0.0502
     18 C         118.8640  155.1000  147.9426 C.2     1  UNL111      0.0496
     19 C         123.9237  155.4877  145.4401 C.3     1  UNL111      0.0985
     20 C         122.3625  150.4670  146.5295 C.2     1  UNL111     -0.0116
     21 C         117.2156  155.1299  146.0911 C.2     1  UNL111      0.1493
     22 C         119.9223  149.7692  146.4162 C.2     1  UNL111     -0.0513
     23 C         121.3273  149.5038  146.4745 C.2     1  UNL111     -0.0254
     24 C         115.7865  154.8497  145.6825 C.3     1  UNL111      0.0241
     25 H         122.2512  156.2772  146.2872 H       1  UNL111      0.1735
     26 H         115.5381  155.4472  144.8001 H       1  UNL111      0.0621
     27 H         115.1034  155.1293  146.4882 H       1  UNL111      0.0621
     28 H         115.6703  153.7936  145.4266 H       1  UNL111      0.0621
@<TRIPOS>UNITY_ATOM_ATTR
3 1
charge -1
5 1
charge 1
@<TRIPOS>BOND
     1     1     8    1
     2     1    17    1
     3     2    12    1
     4     3    22    1
     5     4    21    2
     6     5     9    1
     7     5    14    1
     8     5    19    1
     9     6     7    1
    10     6     8    1
    11     6    10    1
    12     6    11    1
    13     7     9    1
    14     7    16    1
    15     8    12    1
    16     9    13    1
    17    10    14    1
    18    11    15    2
    19    11    17    1
    20    12    18    1
    21    12    21    1
    22    13    15    1
    23    15    20    1
    24    16    18    2
    25    17    22    2
    26    20    23    2
    27    21    24    1
    28    22    23    1
    29     5    25    1
    30    24    26    1
    31    24    27    1
    32    24    28    1
@<TRIPOS>MOLECULE
129711592
 49 53 0 0 0
SMALL
GASTEIGER

@<TRIPOS>ATOM
      1 O         120.9279  154.0469  147.7186 O.2     1  UNL111     -0.5581
      2 O         121.4834  155.5108  145.6866 O.3     1  UNL111     -0.4325
      3 O         123.2142  152.3197  147.1440 O.co2   1  UNL111     -0.4965
      4 O         124.6379  154.0518  146.8464 O.2     1  UNL111     -0.1185
      5 N         116.2162  152.0869  146.8559 N.4     1  UNL111      0.4275
      6 N         123.5569  153.5579  146.5844 N.3     1  UNL111     -0.0281
      7 C         118.6663  153.6439  146.9885 C.3     1  UNL111      0.0506
      8 C         117.6461  153.8769  145.8677 C.3     1  UNL111     -0.0026
      9 C         119.7216  154.7475  147.2481 C.3     1  UNL111      0.0875
     10 C         116.9829  152.4937  145.5736 C.3     1  UNL111     -0.0206
     11 C         117.9337  153.2145  148.2783 C.3     1  UNL111     -0.0261
     12 C         119.6126  152.5619  146.5905 C.3     1  UNL111      0.0084
     13 C         120.0892  155.6520  146.0132 C.3     1  UNL111      0.0602
     14 C         117.9918  151.3961  145.1096 C.3     1  UNL111     -0.0218
     15 C         117.0805  151.9605  148.0911 C.3     1  UNL111     -0.0364
     16 C         119.3403  151.4834  145.7706 C.3     1  UNL111     -0.0474
     17 C         118.2487  154.5466  144.6643 C.2     1  UNL111     -0.0861
     18 C         120.8748  152.8391  147.0637 C.3     1  UNL111      0.0650
     19 C         119.3387  155.3249  144.7453 C.2     1  UNL111     -0.0652
     20 C         119.8365  157.1286  146.3531 C.3     1  UNL111     -0.0252
     21 C         120.3921  150.5998  145.5084 C.3     1  UNL111     -0.0698
     22 C         115.3235  150.8848  146.6770 C.3     1  UNL111     -0.0442
     23 C         121.9364  152.0076  146.7697 C.3     1  UNL111      0.0510
     24 C         121.6904  150.8398  146.0258 C.3     1  UNL111     -0.0538
     25 C         122.8166  149.9028  145.6835 C.3     1  UNL111     -0.0400
     26 H         121.9816  156.0324  146.3464 H       1  UNL111      0.2442
     27 H         115.5625  152.8595  147.0449 H       1  UNL111      0.1328
     28 H         122.9114  154.0647  145.9694 H       1  UNL111      0.6491
     29 H         116.8630  154.5621  146.2239 H       1  UNL111      0.0720
     30 H         119.3870  155.3827  148.0783 H       1  UNL111      0.1422
     31 H         116.2040  152.6109  144.8098 H       1  UNL111      0.0854
     32 H         117.2882  154.0385  148.6105 H       1  UNL111      0.0544
     33 H         118.6408  153.0324  149.0980 H       1  UNL111      0.0544
     34 H         118.1557  151.5368  144.0329 H       1  UNL111      0.0615
     35 H         117.5815  150.3905  145.2370 H       1  UNL111      0.0615
     36 H         117.6844  151.0532  147.9901 H       1  UNL111      0.0738
     37 H         116.4054  151.8320  148.9443 H       1  UNL111      0.0738
     38 H         117.7658  154.4286  143.6951 H       1  UNL111      0.0814
     39 H         119.7163  155.7944  143.8359 H       1  UNL111      0.0921
     40 H         120.4221  157.4324  147.2288 H       1  UNL111      0.0445
     41 H         118.7786  157.3206  146.5640 H       1  UNL111      0.0445
     42 H         120.1510  157.7847  145.5324 H       1  UNL111      0.0445
     43 H         120.2296  149.7371  144.8624 H       1  UNL111      0.0917
     44 H         115.9386  149.9846  146.6184 H       1  UNL111      0.0667
     45 H         114.7374  151.0273  145.7658 H       1  UNL111      0.0667
     46 H         114.6578  150.8349  147.5430 H       1  UNL111      0.0667
     47 H         122.4359  148.9407  145.3248 H       1  UNL111      0.0396
     48 H         123.4298  149.6982  146.5672 H       1  UNL111      0.0396
     49 H         123.4437  150.3404  144.9007 H       1  UNL111      0.0396
@<TRIPOS>UNITY_ATOM_ATTR
3 1
charge -1
5 1
charge 1
6 1
charge 1
@<TRIPOS>BOND
     1     1     9    1
     2     1    18    1
     3     2    13    1
     4     3     6    1
     5     3    23    1
     6     4     6    2
     7     5    10    1
     8     5    15    1
     9     5    22    1
    10     7     8    1
    11     7     9    1
    12     7    11    1
    13     7    12    1
    14     8    10    1
    15     8    17    1
    16     9    13    1
    17    10    14    1
    18    11    15    1
    19    12    16   ar
    20    12    18   ar
    21    13    19    1
    22    13    20    1
    23    14    16    1
    24    16    21   ar
    25    17    19    2
    26    18    23   ar
    27    21    24   ar
    28    23    24   ar
    29    24    25    1
    30     2    26    1
    31     5    27    1
    32     6    28    1
    33     8    29    1
    34     9    30    1
    35    10    31    1
    36    11    32    1
    37    11    33    1
    38    14    34    1
    39    14    35    1
    40    15    36    1
    41    15    37    1
    42    17    38    1
    43    19    39    1
    44    20    40    1
    45    20    41    1
    46    20    42    1
    47    21    43    1
    48    22    44    1
    49    22    45    1
    50    22    46    1
    51    25    47    1
    52    25    48    1
    53    25    49    1
@<TRIPOS>MOLECULE
129780168
 56 61 0 0 0
SMALL
GASTEIGER

@<TRIPOS>ATOM
      1 BR        111.9162  154.2897  146.1193 Br      1  UNL111     -0.0844
      2 O         120.4941  151.4549  147.7132 O.2     1  UNL111     -0.5564
      3 O         120.8445  150.0096  145.5442 O.3     1  UNL111     -0.4349
      4 O         118.4857  151.6483  145.4775 O.3     1  UNL111     -0.4267
      5 N         124.0149  155.1184  146.8272 N.4     1  UNL111      0.4274
      6 C         122.4554  152.6739  147.0696 C.3     1  UNL111      0.0502
      7 C         123.7004  152.7365  146.1735 C.3     1  UNL111     -0.0030
      8 C         121.9196  151.2644  147.4104 C.3     1  UNL111      0.0865
      9 C         123.7674  154.1850  145.6157 C.3     1  UNL111     -0.0209
     10 C         121.2244  153.1978  146.4206 C.2     1  UNL111      0.0089
     11 C         122.7376  153.5477  148.3159 C.3     1  UNL111     -0.0263
     12 C         122.5112  154.5803  144.7855 C.3     1  UNL111     -0.0233
     13 C         121.1875  154.1698  145.3774 C.2     1  UNL111     -0.0532
     14 C         120.1684  152.5266  146.8675 C.2     1  UNL111      0.0630
     15 C         122.9998  155.0110  147.9480 C.3     1  UNL111     -0.0364
     16 C         122.0605  150.2001  146.2696 C.3     1  UNL111      0.0600
     17 C         123.7866  151.6543  145.1405 C.2     1  UNL111     -0.0869
     18 C         118.7629  152.7447  146.3657 C.3     1  UNL111      0.0808
     19 C         123.0717  150.5240  145.2128 C.2     1  UNL111     -0.0672
     20 C         118.6766  154.0907  145.5602 C.3     1  UNL111      0.0014
     21 C         119.9845  154.6015  144.9619 C.2     1  UNL111     -0.0851
     22 C         124.2635  156.5542  146.4425 C.3     1  UNL111     -0.0442
     23 C         117.7478  152.7008  147.5370 C.3     1  UNL111      0.0086
     24 C         116.3237  153.0883  147.1893 C.ar    1  UNL111     -0.0667
     25 C         115.7541  154.2557  147.7195 C.ar    1  UNL111     -0.0746
     26 C         115.5482  152.2797  146.3461 C.ar    1  UNL111     -0.0746
     27 C         114.4420  154.6138  147.4002 C.ar    1  UNL111     -0.0583
     28 C         114.2366  152.6366  146.0255 C.ar    1  UNL111     -0.0583
     29 C         113.6902  153.8034  146.5528 C.ar    1  UNL111     -0.0050
     30 H         120.1321  149.9223  146.2091 H       1  UNL111      0.2424
     31 H         119.2699  151.5123  144.9115 H       1  UNL111      0.2456
     32 H         124.9084  154.8045  147.2308 H       1  UNL111      0.1328
     33 H         124.5943  152.5792  146.7965 H       1  UNL111      0.0719
     34 H         122.4116  150.8828  148.3137 H       1  UNL111      0.1409
     35 H         124.6606  154.2990  144.9884 H       1  UNL111      0.0854
     36 H         123.6093  153.1467  148.8501 H       1  UNL111      0.0544
     37 H         121.9060  153.5099  149.0315 H       1  UNL111      0.0544
     38 H         122.5971  154.0760  143.8128 H       1  UNL111      0.0612
     39 H         122.5113  155.6531  144.5665 H       1  UNL111      0.0612
     40 H         122.0906  155.5306  147.6295 H       1  UNL111      0.0738
     41 H         123.4169  155.5472  148.8076 H       1  UNL111      0.0738
     42 H         122.3129  149.2355  146.7242 H       1  UNL111      0.1220
     43 H         124.5016  151.7619  144.3257 H       1  UNL111      0.0812
     44 H         123.1977  149.7668  144.4389 H       1  UNL111      0.0909
     45 H         118.3096  154.8976  146.2067 H       1  UNL111      0.0618
     46 H         117.9592  153.9720  144.7385 H       1  UNL111      0.0618
     47 H         119.8968  155.3318  144.1606 H       1  UNL111      0.0807
     48 H         123.3213  157.0097  146.1303 H       1  UNL111      0.0667
     49 H         125.0002  156.5690  145.6355 H       1  UNL111      0.0667
     50 H         124.6632  157.0686  147.3206 H       1  UNL111      0.0667
     51 H         118.1017  153.3542  148.3463 H       1  UNL111      0.0652
     52 H         117.7100  151.6873  147.9605 H       1  UNL111      0.0652
     53 H         116.3233  154.8962  148.3891 H       1  UNL111      0.0905
     54 H         115.9612  151.3616  145.9313 H       1  UNL111      0.0905
     55 H         114.0143  155.5208  147.8195 H       1  UNL111      0.0964
     56 H         113.6531  151.9970  145.3685 H       1  UNL111      0.0964
@<TRIPOS>UNITY_ATOM_ATTR
5 1
charge 1
@<TRIPOS>BOND
     1     1    29    1
     2     2     8    1
     3     2    14    1
     4     3    16    1
     5     4    18    1
     6     5     9    1
     7     5    15    1
     8     5    22    1
     9     6     7    1
    10     6     8    1
    11     6    10    1
    12     6    11    1
    13     7     9    1
    14     7    17    1
    15     8    16    1
    16     9    12    1
    17    10    13    1
    18    10    14    2
    19    11    15    1
    20    12    13    1
    21    13    21    2
    22    14    18    1
    23    16    19    1
    24    17    19    2
    25    18    20    1
    26    18    23    1
    27    20    21    1
    28    23    24    1
    29    24    25   ar
    30    24    26   ar
    31    25    27   ar
    32    26    28   ar
    33    27    29   ar
    34    28    29   ar
    35     3    30    1
    36     4    31    1
    37     5    32    1
    38     7    33    1
    39     8    34    1
    40     9    35    1
    41    11    36    1
    42    11    37    1
    43    12    38    1
    44    12    39    1
    45    15    40    1
    46    15    41    1
    47    16    42    1
    48    17    43    1
    49    19    44    1
    50    20    45    1
    51    20    46    1
    52    21    47    1
    53    22    48    1
    54    22    49    1
    55    22    50    1
    56    23    51    1
    57    23    52    1
    58    25    53    1
    59    26    54    1
    60    27    55    1
    61    28    56    1
@<TRIPOS>MOLECULE
162640439
 60 65 0 0 0
SMALL
GASTEIGER

@<TRIPOS>ATOM
      1 O         119.2988  151.9854  147.3321 O.2     1  UNL111     -0.5434
      2 O         120.9914  152.7314  145.3628 O.3     1  UNL111     -0.3935
      3 O         118.6415  149.2009  146.8506 O.2     1  UNL111     -0.5485
      4 O         122.7586  153.9128  146.3275 O.3     1  UNL111     -0.3865
      5 O         122.4960  150.3379  145.5604 O.3     1  UNL111     -0.4257
      6 O         125.3089  150.6795  146.0313 O.3     1  UNL111     -0.4316
      7 O         125.8619  152.7334  147.9740 O.3     1  UNL111     -0.4315
      8 O         123.5739  156.1384  148.1239 O.co2   1  UNL111     -0.5546
      9 O         125.2805  155.7489  146.6482 O.co2   1  UNL111     -0.5546
     10 N         115.3078  155.3334  147.2760 N.4     1  UNL111      0.4275
     11 C         117.7905  153.8572  146.9888 C.3     1  UNL111      0.0537
     12 C         117.3728  154.9042  145.9439 C.3     1  UNL111     -0.0025
     13 C         119.2779  153.4304  147.0341 C.3     1  UNL111      0.0935
     14 C         115.8152  154.8818  145.8858 C.3     1  UNL111     -0.0206
     15 C         117.2617  154.2484  148.3833 C.3     1  UNL111     -0.0258
     16 C         117.2117  152.5375  146.5915 C.3     1  UNL111      0.0233
     17 C         115.2203  153.5034  145.4562 C.3     1  UNL111     -0.0213
     18 C         115.7497  154.4458  148.4169 C.3     1  UNL111     -0.0364
     19 C         120.0873  153.7718  145.7461 C.3     1  UNL111      0.0768
     20 C         116.0078  152.3180  145.9431 C.3     1  UNL111     -0.0425
     21 C         118.0356  154.6717  144.6110 C.2     1  UNL111     -0.0864
     22 C         118.1037  151.5253  146.8569 C.3     1  UNL111      0.1050
     23 C         119.2577  154.1228  144.5348 C.2     1  UNL111     -0.0634
     24 C         113.8312  155.6152  147.3241 C.3     1  UNL111     -0.0442
     25 C         115.6664  150.9915  145.6612 C.3     1  UNL111     -0.0573
     26 C         117.7783  150.2171  146.5910 C.3     1  UNL111      0.0917
     27 C         116.5438  149.9423  146.0050 C.3     1  UNL111     -0.0140
     28 C         122.1232  152.6599  146.2458 C.3     1  UNL111      0.1188
     29 C         123.1076  151.6382  145.6731 C.3     1  UNL111      0.0885
     30 C         124.3169  151.5547  146.6006 C.3     1  UNL111      0.0765
     31 C         124.9323  152.9362  146.8967 C.3     1  UNL111      0.0783
     32 C         123.8404  153.9356  147.2909 C.3     1  UNL111      0.1059
     33 C         124.3062  155.4133  147.3774 C.2     1  UNL111      0.0691
     34 H         119.4657  149.6096  147.1802 H       1  UNL111      0.3393
     35 H         121.6753  150.4995  145.0535 H       1  UNL111      0.2441
     36 H         124.8106  149.8890  145.7461 H       1  UNL111      0.2418
     37 H         126.5693  152.1828  147.5893 H       1  UNL111      0.2419
     38 H         115.7532  156.2472  147.4449 H       1  UNL111      0.1328
     39 H         117.6910  155.9033  146.2752 H       1  UNL111      0.0720
     40 H         119.7887  153.9116  147.8786 H       1  UNL111      0.1422
     41 H         115.4592  155.6563  145.1949 H       1  UNL111      0.0854
     42 H         117.7486  155.1811  148.6977 H       1  UNL111      0.0544
     43 H         117.5289  153.4950  149.1358 H       1  UNL111      0.0544
     44 H         115.2384  153.4680  144.3586 H       1  UNL111      0.0615
     45 H         114.1740  153.4015  145.7571 H       1  UNL111      0.0615
     46 H         115.1999  153.5020  148.3442 H       1  UNL111      0.0738
     47 H         115.4537  154.9444  149.3465 H       1  UNL111      0.0738
     48 H         120.6448  154.6981  145.9412 H       1  UNL111      0.1271
     49 H         117.5450  154.9915  143.6945 H       1  UNL111      0.0812
     50 H         119.7448  154.0096  143.5680 H       1  UNL111      0.0915
     51 H         113.2822  154.6717  147.2914 H       1  UNL111      0.0667
     52 H         113.5755  156.2522  146.4738 H       1  UNL111      0.0667
     53 H         113.6227  156.1426  148.2589 H       1  UNL111      0.0667
     54 H         114.7426  150.7512  145.1388 H       1  UNL111      0.0939
     55 H         116.2823  148.9133  145.7692 H       1  UNL111      0.1139
     56 H         121.7748  152.3361  147.2336 H       1  UNL111      0.1708
     57 H         123.4258  151.9218  144.6626 H       1  UNL111      0.1333
     58 H         124.0243  151.0746  147.5441 H       1  UNL111      0.1245
     59 H         125.4986  153.2809  146.0234 H       1  UNL111      0.1247
     60 H         123.4371  153.6730  148.2789 H       1  UNL111      0.1358
@<TRIPOS>UNITY_ATOM_ATTR
8 1
charge -1
10 1
charge 1
@<TRIPOS>BOND
     1     1    13    1
     2     1    22    1
     3     2    19    1
     4     2    28    1
     5     3    26    1
     6     4    28    1
     7     4    32    1
     8     5    29    1
     9     6    30    1
    10     7    31    1
    11     8    33   ar
    12     9    33   ar
    13    10    14    1
    14    10    18    1
    15    10    24    1
    16    11    12    1
    17    11    13    1
    18    11    15    1
    19    11    16    1
    20    12    14    1
    21    12    21    1
    22    13    19    1
    23    14    17    1
    24    15    18    1
    25    16    20   ar
    26    16    22   ar
    27    17    20    1
    28    19    23    1
    29    20    25   ar
    30    21    23    2
    31    22    26   ar
    32    25    27   ar
    33    26    27   ar
    34    28    29    1
    35    29    30    1
    36    30    31    1
    37    31    32    1
    38    32    33    1
    39     3    34    1
    40     5    35    1
    41     6    36    1
    42     7    37    1
    43    10    38    1
    44    12    39    1
    45    13    40    1
    46    14    41    1
    47    15    42    1
    48    15    43    1
    49    17    44    1
    50    17    45    1
    51    18    46    1
    52    18    47    1
    53    19    48    1
    54    21    49    1
    55    23    50    1
    56    24    51    1
    57    24    52    1
    58    24    53    1
    59    25    54    1
    60    27    55    1
    61    28    56    1
    62    29    57    1
    63    30    58    1
    64    31    59    1
    65    32    60    1
@<TRIPOS>MOLECULE
526469
 46 50 0 0 0
SMALL
GASTEIGER

@<TRIPOS>ATOM
      1 O         118.6187  153.8201  145.1175 O.2     1  UNL111     -0.5430
      2 O         119.2861  156.9387  146.2326 O.3     1  UNL111     -0.4348
      3 O         116.5754  151.7849  145.7854 O.3     1  UNL111     -0.4570
      4 O         116.2090  153.6162  147.1975 O.2     1  UNL111     -0.3381
      5 N         123.5183  152.4013  145.9255 N.4     1  UNL111      0.4275
      6 C         120.9299  153.7155  145.7830 C.3     1  UNL111      0.0533
      7 C         121.9901  154.1627  146.7964 C.3     1  UNL111     -0.0026
      8 C         122.7842  152.8842  147.2019 C.3     1  UNL111     -0.0206
      9 C         119.7627  154.6791  145.4869 C.3     1  UNL111      0.0903
     10 C         121.6317  153.2204  144.4987 C.3     1  UNL111     -0.0259
     11 C         120.1113  152.6013  146.3396 C.3     1  UNL111      0.0244
     12 C         121.9023  151.7657  147.8436 C.3     1  UNL111     -0.0213
     13 C         122.6095  152.0749  144.7608 C.3     1  UNL111     -0.0364
     14 C         120.5309  151.6378  147.2387 C.3     1  UNL111     -0.0423
     15 C         119.3369  155.5834  146.6807 C.3     1  UNL111      0.0605
     16 C         121.4279  154.9431  147.9483 C.2     1  UNL111     -0.0869
     17 C         118.8151  152.6919  145.8765 C.3     1  UNL111      0.1138
     18 C         120.2523  155.5829  147.8710 C.2     1  UNL111     -0.0672
     19 C         124.5213  151.3062  146.1763 C.3     1  UNL111     -0.0442
     20 C         119.5975  150.6655  147.6080 C.3     1  UNL111     -0.0561
     21 C         117.8852  151.7467  146.2457 C.3     1  UNL111      0.1318
     22 C         118.2839  150.7057  147.0925 C.3     1  UNL111     -0.0054
     23 C         115.8371  152.8266  146.3383 C.2     1  UNL111      0.2266
     24 C         114.4650  152.8210  145.7328 C.3     1  UNL111      0.0573
     25 H         118.3989  157.0718  145.8515 H       1  UNL111      0.2424
     26 H         124.0880  153.2031  145.6204 H       1  UNL111      0.1328
     27 H         122.6895  154.8539  146.3026 H       1  UNL111      0.0720
     28 H         123.5878  153.1511  147.8997 H       1  UNL111      0.0854
     29 H         119.9837  155.2987  144.6088 H       1  UNL111      0.1417
     30 H         122.1772  154.0591  144.0458 H       1  UNL111      0.0544
     31 H         120.9050  152.8894  143.7455 H       1  UNL111      0.0544
     32 H         121.7602  152.0258  148.9009 H       1  UNL111      0.0615
     33 H         122.4081  150.7962  147.8228 H       1  UNL111      0.0615
     34 H         122.0999  151.1324  144.9845 H       1  UNL111      0.0738
     35 H         123.2514  151.9193  143.8867 H       1  UNL111      0.0738
     36 H         118.3317  155.3201  147.0292 H       1  UNL111      0.1221
     37 H         122.0222  155.0563  148.8535 H       1  UNL111      0.0812
     38 H         119.9115  156.1723  148.7215 H       1  UNL111      0.0909
     39 H         123.9923  150.3703  146.3676 H       1  UNL111      0.0667
     40 H         125.1385  151.5964  147.0301 H       1  UNL111      0.0667
     41 H         125.1438  151.2152  145.2819 H       1  UNL111      0.0667
     42 H         119.8588  149.8836  148.3192 H       1  UNL111      0.0940
     43 H         117.5636  149.9481  147.3938 H       1  UNL111      0.1154
     44 H         114.5391  152.8875  144.6443 H       1  UNL111      0.0797
     45 H         113.9072  153.6902  146.0930 H       1  UNL111      0.0797
     46 H         113.9341  151.9129  146.0286 H       1  UNL111      0.0797
@<TRIPOS>UNITY_ATOM_ATTR
5 1
charge 1
@<TRIPOS>BOND
     1     1     9    1
     2     1    17    1
     3     2    15    1
     4     3    21    1
     5     3    23    1
     6     4    23    2
     7     5     8    1
     8     5    13    1
     9     5    19    1
    10     6     7    1
    11     6     9    1
    12     6    10    1
    13     6    11    1
    14     7     8    1
    15     7    16    1
    16     8    12    1
    17     9    15    1
    18    10    13    1
    19    11    14   ar
    20    11    17   ar
    21    12    14    1
    22    14    20   ar
    23    15    18    1
    24    16    18    2
    25    17    21   ar
    26    20    22   ar
    27    21    22   ar
    28    23    24    1
    29     2    25    1
    30     5    26    1
    31     7    27    1
    32     8    28    1
    33     9    29    1
    34    10    30    1
    35    10    31    1
    36    12    32    1
    37    12    33    1
    38    13    34    1
    39    13    35    1
    40    15    36    1
    41    16    37    1
    42    18    38    1
    43    19    39    1
    44    19    40    1
    45    19    41    1
    46    20    42    1
    47    22    43    1
    48    24    44    1
    49    24    45    1
    50    24    46    1
@<TRIPOS>MOLECULE
569939
 42 46 0 0 0
SMALL
GASTEIGER

@<TRIPOS>ATOM
      1 O         121.4028  151.3970  147.0106 O.3     1  UNL111     -0.5420
      2 O         118.8088  152.8270  144.1652 O.3     1  UNL111     -0.4293
      3 O         119.3088  149.0442  146.1973 O.3     1  UNL111     -0.4344
      4 O         124.1637  152.5379  146.9353 O.3     1  UNL111     -0.5485
      5 N         117.5594  154.8045  147.1160 N.4     1  UNL111      0.4306
      6 C         119.4877  152.7195  146.5733 C.3     1  UNL111      0.0777
      7 C         118.4237  153.0242  145.5267 C.3     1  UNL111      0.0621
      8 C         118.1344  154.5582  145.7093 C.3     1  UNL111      0.0060
      9 C         120.0936  151.3391  146.3579 C.3     1  UNL111      0.0976
     10 C         119.0173  153.0214  148.0376 C.3     1  UNL111     -0.0182
     11 C         120.7131  153.4870  146.3482 C.ar    1  UNL111      0.0321
     12 C         119.4504  155.4218  145.4356 C.3     1  UNL111     -0.0135
     13 C         118.5111  154.4486  148.2282 C.3     1  UNL111     -0.0332
     14 C         120.7540  154.7826  145.8793 C.ar    1  UNL111     -0.0391
     15 C         119.0393  150.3053  146.7885 C.3     1  UNL111      0.0635
     16 C         117.3596  151.9596  145.7451 C.2     1  UNL111     -0.0547
     17 C         121.7972  152.6902  146.6766 C.ar    1  UNL111      0.1070
     18 C         117.6486  150.7502  146.2979 C.2     1  UNL111     -0.0572
     19 C         116.9649  156.1761  147.2938 C.3     1  UNL111     -0.0425
     20 C         122.0281  155.3331  145.7927 C.ar    1  UNL111     -0.0569
     21 C         123.0482  153.2383  146.6146 C.ar    1  UNL111      0.0920
     22 C         123.1652  154.5674  146.1752 C.ar    1  UNL111     -0.0140
     23 H         119.7774  152.8547  144.0593 H       1  UNL111      0.2466
     24 H         120.1909  148.7564  146.4941 H       1  UNL111      0.2424
     25 H         123.8856  151.6359  147.1800 H       1  UNL111      0.3393
     26 H         116.7579  154.1619  147.2037 H       1  UNL111      0.1354
     27 H         117.3535  154.8772  145.0079 H       1  UNL111      0.0988
     28 H         120.3286  151.1314  145.3000 H       1  UNL111      0.1438
     29 H         119.8247  152.8421  148.7602 H       1  UNL111      0.0564
     30 H         118.2081  152.3478  148.3408 H       1  UNL111      0.0564
     31 H         119.3634  156.4173  145.8803 H       1  UNL111      0.0636
     32 H         119.5228  155.5596  144.3488 H       1  UNL111      0.0636
     33 H         117.9575  154.5331  149.1699 H       1  UNL111      0.0743
     34 H         119.3196  155.1859  148.2374 H       1  UNL111      0.0743
     35 H         119.0303  150.1651  147.8742 H       1  UNL111      0.1225
     36 H         116.3626  152.1368  145.3474 H       1  UNL111      0.0957
     37 H         116.8649  149.9972  146.3772 H       1  UNL111      0.0931
     38 H         117.7671  156.9163  147.3167 H       1  UNL111      0.0670
     39 H         116.4142  156.1800  148.2384 H       1  UNL111      0.0670
     40 H         116.2782  156.3609  146.4640 H       1  UNL111      0.0670
     41 H         122.1796  156.3454  145.4218 H       1  UNL111      0.0939
     42 H         124.1570  155.0128  146.1030 H       1  UNL111      0.1139
@<TRIPOS>UNITY_ATOM_ATTR
5 1
charge 1
@<TRIPOS>BOND
     1     1     9    1
     2     1    17    1
     3     2     7    1
     4     3    15    1
     5     4    21    1
     6     5     8    1
     7     5    13    1
     8     5    19    1
     9     6     7    1
    10     6     9    1
    11     6    10    1
    12     6    11    1
    13     7     8    1
    14     7    16    1
    15     8    12    1
    16     9    15    1
    17    10    13    1
    18    11    14   ar
    19    11    17   ar
    20    12    14    1
    21    14    20   ar
    22    15    18    1
    23    16    18    2
    24    17    21   ar
    25    20    22   ar
    26    21    22   ar
    27     2    23    1
    28     3    24    1
    29     4    25    1
    30     5    26    1
    31     8    27    1
    32     9    28    1
    33    10    29    1
    34    10    30    1
    35    12    31    1
    36    12    32    1
    37    13    33    1
    38    13    34    1
    39    15    35    1
    40    16    36    1
    41    18    37    1
    42    19    38    1
    43    19    39    1
    44    19    40    1
    45    20    41    1
    46    22    42    1
@<TRIPOS>MOLECULE
20837809
 51 55 0 0 0
SMALL
GASTEIGER

@<TRIPOS>ATOM
      1 O         120.9454  154.2401  147.5069 O.2     1  UNL111     -0.5520
      2 O         120.6850  156.5665  146.3186 O.3     1  UNL111     -0.4349
      3 O         122.3293  154.0007  144.9109 O.3     1  UNL111     -0.4065
      4 O         124.2903  152.9592  146.3542 O.2     1  UNL111     -0.4039
      5 N         116.3810  151.7785  147.0729 N.4     1  UNL111      0.4274
      6 C         118.6388  153.6074  147.2159 C.3     1  UNL111      0.0508
      7 C         117.3401  154.0041  146.4931 C.3     1  UNL111     -0.0030
      8 C         116.7478  152.7002  145.8872 C.3     1  UNL111     -0.0209
      9 C         119.5830  154.7687  147.6323 C.3     1  UNL111      0.0873
     10 C         119.5626  152.8868  146.2918 C.2     1  UNL111      0.0133
     11 C         118.2907  152.6830  148.4039 C.3     1  UNL111     -0.0262
     12 C         117.6947  152.0115  144.8616 C.3     1  UNL111     -0.0232
     13 C         119.1662  152.0650  145.1905 C.2     1  UNL111     -0.0522
     14 C         117.5394  151.4233  147.9760 C.3     1  UNL111     -0.0364
     15 C         120.8124  153.2718  146.5164 C.2     1  UNL111      0.0844
     16 C         119.4397  156.0843  146.8063 C.3     1  UNL111      0.0600
     17 C         117.5340  155.1089  145.4926 C.2     1  UNL111     -0.0869
     18 C         121.9820  152.8419  145.6887 C.3     1  UNL111      0.1506
     19 C         118.4900  156.0357  145.6460 C.2     1  UNL111     -0.0672
     20 C         120.1263  151.4803  144.4513 C.2     1  UNL111     -0.0812
     21 C         121.6159  151.6796  144.7140 C.3     1  UNL111      0.0198
     22 C         115.5886  150.5599  146.6736 C.3     1  UNL111     -0.0442
     23 C         123.1861  152.4481  146.5718 C.2     1  UNL111      0.1311
     24 C         122.9903  151.3750  147.6326 C.3     1  UNL111      0.0234
     25 C         124.0831  151.4124  148.6870 C.3     1  UNL111     -0.0483
     26 H         121.1983  155.7993  145.9958 H       1  UNL111      0.2424
     27 H         123.3065  154.0767  144.9669 H       1  UNL111      0.2523
     28 H         115.7273  152.3251  147.6514 H       1  UNL111      0.1328
     29 H         116.6195  154.3947  147.2269 H       1  UNL111      0.0719
     30 H         115.7906  152.9223  145.3988 H       1  UNL111      0.0854
     31 H         119.4447  155.0163  148.6924 H       1  UNL111      0.1410
     32 H         117.6737  153.2407  149.1212 H       1  UNL111      0.0544
     33 H         119.1941  152.3831  148.9510 H       1  UNL111      0.0544
     34 H         117.5628  152.5364  143.9048 H       1  UNL111      0.0612
     35 H         117.3907  150.9762  144.6781 H       1  UNL111      0.0612
     36 H         118.1798  150.7142  147.4421 H       1  UNL111      0.0738
     37 H         117.1206  150.9170  148.8526 H       1  UNL111      0.0738
     38 H         119.0571  156.8602  147.4809 H       1  UNL111      0.1220
     39 H         116.8534  155.1971  144.6473 H       1  UNL111      0.0812
     40 H         118.5746  156.8464  144.9228 H       1  UNL111      0.0909
     41 H         119.8689  150.8751  143.5842 H       1  UNL111      0.0813
     42 H         122.0033  150.7207  145.0768 H       1  UNL111      0.0668
     43 H         122.0983  151.8625  143.7449 H       1  UNL111      0.0668
     44 H         116.2497  149.8491  146.1736 H       1  UNL111      0.0667
     45 H         114.7768  150.8801  146.0159 H       1  UNL111      0.0667
     46 H         115.1764  150.1193  147.5855 H       1  UNL111      0.0667
     47 H         122.9842  150.3975  147.1411 H       1  UNL111      0.0666
     48 H         122.0255  151.5184  148.1269 H       1  UNL111      0.0666
     49 H         125.0664  151.2214  148.2448 H       1  UNL111      0.0308
     50 H         123.9005  150.6516  149.4520 H       1  UNL111      0.0308
     51 H         124.1199  152.3909  149.1773 H       1  UNL111      0.0308
@<TRIPOS>UNITY_ATOM_ATTR
5 1
charge 1
@<TRIPOS>BOND
     1     1     9    1
     2     1    15    1
     3     2    16    1
     4     3    18    1
     5     4    23    2
     6     5     8    1
     7     5    14    1
     8     5    22    1
     9     6     7    1
    10     6     9    1
    11     6    10    1
    12     6    11    1
    13     7     8    1
    14     7    17    1
    15     8    12    1
    16     9    16    1
    17    10    13    1
    18    10    15    2
    19    11    14    1
    20    12    13    1
    21    13    20    2
    22    15    18    1
    23    16    19    1
    24    17    19    2
    25    18    21    1
    26    18    23    1
    27    20    21    1
    28    23    24    1
    29    24    25    1
    30     2    26    1
    31     3    27    1
    32     5    28    1
    33     7    29    1
    34     8    30    1
    35     9    31    1
    36    11    32    1
    37    11    33    1
    38    12    34    1
    39    12    35    1
    40    14    36    1
    41    14    37    1
    42    16    38    1
    43    17    39    1
    44    19    40    1
    45    20    41    1
    46    21    42    1
    47    21    43    1
    48    22    44    1
    49    22    45    1
    50    22    46    1
    51    24    47    1
    52    24    48    1
    53    25    49    1
    54    25    50    1
    55    25    51    1
@<TRIPOS>MOLECULE
22791130
 46 50 0 0 0
SMALL
GASTEIGER

@<TRIPOS>ATOM
      1 O         118.9425  152.4004  147.6717 O.2     1  UNL111     -0.5437
      2 O         118.6503  151.4369  145.0696 O.3     1  UNL111     -0.4348
      3 O         117.0283  154.6241  147.2407 O.2     1  UNL111     -0.5479
      4 O         115.1437  152.3396  148.0409 O.co2   1  UNL111     -0.5531
      5 O         116.4584  151.5187  146.3607 O.co2   1  UNL111     -0.5531
      6 N         123.7805  153.8180  146.9300 N.4     1  UNL111      0.4275
      7 C         121.2181  152.4483  146.9874 C.3     1  UNL111      0.0532
      8 C         122.3380  151.9914  146.0529 C.3     1  UNL111     -0.0026
      9 C         123.1032  153.2796  145.6326 C.3     1  UNL111     -0.0206
     10 C         120.0076  151.5211  147.1830 C.3     1  UNL111      0.0902
     11 C         121.8734  152.9155  148.3094 C.3     1  UNL111     -0.0259
     12 C         120.4424  153.6011  146.4515 C.3     1  UNL111      0.0235
     13 C         122.2236  154.3585  144.9254 C.3     1  UNL111     -0.0213
     14 C         122.8316  154.0882  148.0880 C.3     1  UNL111     -0.0364
     15 C         120.8840  154.5623  145.5669 C.3     1  UNL111     -0.0425
     16 C         119.5823  150.7417  145.8874 C.3     1  UNL111      0.0605
     17 C         121.9148  151.0689  144.9530 C.2     1  UNL111     -0.0869
     18 C         119.1593  153.5644  146.9679 C.3     1  UNL111      0.1069
     19 C         120.7107  150.4805  144.9247 C.2     1  UNL111     -0.0672
     20 C         119.9919  155.5923  145.2666 C.3     1  UNL111     -0.0570
     21 C         124.7036  154.9792  146.6928 C.3     1  UNL111     -0.0442
     22 C         118.2725  154.5758  146.6915 C.3     1  UNL111      0.0974
     23 C         118.7051  155.6138  145.8544 C.3     1  UNL111     -0.0121
     24 C         116.0767  153.8636  146.4590 C.3     1  UNL111      0.0917
     25 C         115.8851  152.4411  147.0228 C.2     1  UNL111      0.0677
     26 H         117.7931  151.4463  145.5845 H       1  UNL111      0.2424
     27 H         124.3881  153.0526  147.2494 H       1  UNL111      0.1328
     28 H         123.0393  151.3695  146.6316 H       1  UNL111      0.0720
     29 H         123.9409  153.0161  144.9750 H       1  UNL111      0.0854
     30 H         120.2328  150.7878  147.9679 H       1  UNL111      0.1417
     31 H         122.4219  152.0771  148.7588 H       1  UNL111      0.0544
     32 H         121.1258  153.2161  149.0546 H       1  UNL111      0.0544
     33 H         122.0406  154.0180  143.8978 H       1  UNL111      0.0615
     34 H         122.7523  155.3132  144.8510 H       1  UNL111      0.0615
     35 H         122.3070  155.0261  147.8804 H       1  UNL111      0.0738
     36 H         123.4548  154.2377  148.9768 H       1  UNL111      0.0738
     37 H         119.1230  149.7912  146.1815 H       1  UNL111      0.1221
     38 H         122.6327  150.8129  144.1767 H       1  UNL111      0.0812
     39 H         120.4629  149.8073  144.1053 H       1  UNL111      0.0909
     40 H         120.2587  156.3780  144.5643 H       1  UNL111      0.0939
     41 H         124.1121  155.8762  146.4969 H       1  UNL111      0.0667
     42 H         125.3494  154.7362  145.8453 H       1  UNL111      0.0667
     43 H         125.3085  155.1129  147.5937 H       1  UNL111      0.0667
     44 H         118.0154  156.4220  145.6222 H       1  UNL111      0.1143
     45 H         116.3496  153.8338  145.3956 H       1  UNL111      0.1374
     46 H         115.1196  154.3939  146.5236 H       1  UNL111      0.1374
@<TRIPOS>UNITY_ATOM_ATTR
4 1
charge -1
6 1
charge 1
@<TRIPOS>BOND
     1     1    10    1
     2     1    18    1
     3     2    16    1
     4     3    22    1
     5     3    24    1
     6     4    25   ar
     7     5    25   ar
     8     6     9    1
     9     6    14    1
    10     6    21    1
    11     7     8    1
    12     7    10    1
    13     7    11    1
    14     7    12    1
    15     8     9    1
    16     8    17    1
    17     9    13    1
    18    10    16    1
    19    11    14    1
    20    12    15   ar
    21    12    18   ar
    22    13    15    1
    23    15    20   ar
    24    16    19    1
    25    17    19    2
    26    18    22   ar
    27    20    23   ar
    28    22    23   ar
    29    24    25    1
    30     2    26    1
    31     6    27    1
    32     8    28    1
    33     9    29    1
    34    10    30    1
    35    11    31    1
    36    11    32    1
    37    13    33    1
    38    13    34    1
    39    14    35    1
    40    14    36    1
    41    16    37    1
    42    17    38    1
    43    19    39    1
    44    20    40    1
    45    21    41    1
    46    21    42    1
    47    21    43    1
    48    23    44    1
    49    24    45    1
    50    24    46    1
@<TRIPOS>MOLECULE
53921933
 47 51 0 0 0
SMALL
GASTEIGER

@<TRIPOS>ATOM
      1 S         115.5992  152.3213  145.7784 S.O2    1  UNL111      0.0377
      2 O         119.1395  154.5267  145.3280 O.2     1  UNL111     -0.5416
      3 O         119.4345  156.3220  147.2053 O.3     1  UNL111     -0.4348
      4 O         116.7189  153.3614  146.3563 O.2     1  UNL111     -0.3956
      5 O         116.1625  151.5854  144.6630 O.2     1  UNL111     -0.2142
      6 O         114.9593  151.6485  146.8907 O.2     1  UNL111     -0.2142
      7 N         123.3669  151.5725  145.7550 N.4     1  UNL111      0.4275
      8 C         121.3707  153.6890  145.7290 C.3     1  UNL111      0.0535
      9 C         122.6597  153.8259  146.5472 C.3     1  UNL111     -0.0026
     10 C         123.0364  152.3908  147.0295 C.3     1  UNL111     -0.0206
     11 C         120.5444  154.9617  145.4472 C.3     1  UNL111      0.0905
     12 C         121.6718  152.8754  144.4492 C.3     1  UNL111     -0.0258
     13 C         120.3241  152.9695  146.5089 C.3     1  UNL111      0.0263
     14 C         121.9419  151.7097  147.9095 C.3     1  UNL111     -0.0213
     15 C         122.2397  151.4866  144.7474 C.3     1  UNL111     -0.0364
     16 C         120.5340  151.9987  147.4695 C.3     1  UNL111     -0.0419
     17 C         120.6640  156.0895  146.5229 C.3     1  UNL111      0.0605
     18 C         122.5721  154.8569  147.6336 C.2     1  UNL111     -0.0869
     19 C         119.0711  153.4414  146.1728 C.3     1  UNL111      0.1242
     20 C         121.6877  155.8638  147.5974 C.2     1  UNL111     -0.0672
     21 C         119.3996  151.4309  148.0506 C.3     1  UNL111     -0.0543
     22 C         123.9617  150.2169  146.0396 C.3     1  UNL111     -0.0442
     23 C         117.9409  152.8704  146.7108 C.3     1  UNL111      0.1662
     24 C         118.1099  151.8551  147.6621 C.3     1  UNL111      0.0047
     25 C         114.4793  153.5426  145.1405 C.3     1  UNL111      0.1094
     26 H         118.7151  156.0693  146.5971 H       1  UNL111      0.2424
     27 H         124.1252  152.0877  145.2869 H       1  UNL111      0.1328
     28 H         123.4663  154.1823  145.8890 H       1  UNL111      0.0720
     29 H         123.9786  152.4228  147.5907 H       1  UNL111      0.0854
     30 H         120.8345  155.3860  144.4774 H       1  UNL111      0.1417
     31 H         122.3928  153.4320  143.8357 H       1  UNL111      0.0544
     32 H         120.7745  152.7561  143.8281 H       1  UNL111      0.0544
     33 H         122.0450  152.1053  148.9286 H       1  UNL111      0.0615
     34 H         122.0961  150.6289  147.9743 H       1  UNL111      0.0615
     35 H         121.4841  150.8012  145.1438 H       1  UNL111      0.0738
     36 H         122.6586  151.0466  143.8357 H       1  UNL111      0.0738
     37 H         120.9160  157.0246  146.0090 H       1  UNL111      0.1221
     38 H         123.2852  154.8221  148.4560 H       1  UNL111      0.0812
     39 H         121.6900  156.5997  148.4018 H       1  UNL111      0.0909
     40 H         119.4895  150.6758  148.8301 H       1  UNL111      0.0942
     41 H         123.1779  149.5487  146.4021 H       1  UNL111      0.0667
     42 H         124.7547  150.3406  146.7812 H       1  UNL111      0.0667
     43 H         124.3833  149.8374  145.1048 H       1  UNL111      0.0667
     44 H         117.2449  151.4074  148.1499 H       1  UNL111      0.1176
     45 H         114.9879  154.1154  144.3629 H       1  UNL111      0.1138
     46 H         114.1617  154.1930  145.9577 H       1  UNL111      0.1138
     47 H         113.6156  153.0241  144.7191 H       1  UNL111      0.1138
@<TRIPOS>UNITY_ATOM_ATTR
7 1
charge 1
@<TRIPOS>BOND
     1     1     4    1
     2     1     5    2
     3     1     6    2
     4     1    25    1
     5     2    11    1
     6     2    19    1
     7     3    17    1
     8     4    23    1
     9     7    10    1
    10     7    15    1
    11     7    22    1
    12     8     9    1
    13     8    11    1
    14     8    12    1
    15     8    13    1
    16     9    10    1
    17     9    18    1
    18    10    14    1
    19    11    17    1
    20    12    15    1
    21    13    16   ar
    22    13    19   ar
    23    14    16    1
    24    16    21   ar
    25    17    20    1
    26    18    20    2
    27    19    23   ar
    28    21    24   ar
    29    23    24   ar
    30     3    26    1
    31     7    27    1
    32     9    28    1
    33    10    29    1
    34    11    30    1
    35    12    31    1
    36    12    32    1
    37    14    33    1
    38    14    34    1
    39    15    35    1
    40    15    36    1
    41    17    37    1
    42    18    38    1
    43    20    39    1
    44    21    40    1
    45    22    41    1
    46    22    42    1
    47    22    43    1
    48    24    44    1
    49    25    45    1
    50    25    46    1
    51    25    47    1
@<TRIPOS>MOLECULE
87576881
 40 43 0 0 0
SMALL
GASTEIGER

@<TRIPOS>ATOM
      1 O         116.5288  152.3332  146.8712 O.co2   1  UNL1111    -0.7568
      2 N         117.7560  151.7438  146.6157 N.3     1  UNL1111     0.4016
      3 C         118.7162  153.9487  145.8942 C.3     1  UNL1111    -0.0310
      4 C         119.7319  153.9229  147.0701 C.3     1  UNL1111     0.0016
      5 C         118.4452  152.5019  145.4575 C.3     1  UNL1111    -0.0457
      6 C         119.0414  153.1984  148.2529 C.3     1  UNL1111    -0.0398
      7 C         118.5880  151.7850  147.8828 C.3     1  UNL1111    -0.0567
      8 C         119.7207  151.8524  144.9010 C.3     1  UNL1111    -0.0286
      9 C         119.1777  154.8797  144.7592 C.3     1  UNL1111    -0.0459
     10 C         121.0042  153.1269  146.7047 C.3     1  UNL1111    -0.0584
     11 C         120.9702  152.1351  145.7001 C.3     1  UNL1111    -0.0661
     12 C         120.0606  155.3625  147.4550 C.2     1  UNL1111    -0.0966
     13 C         119.3021  156.3207  145.2636 C.3     1  UNL1111    -0.0448
     14 C         117.4674  150.3131  146.2534 C.3     1  UNL1111    -0.0630
     15 C         119.8640  156.4205  146.6514 C.2     1  UNL1111    -0.1118
     16 C         122.2060  153.3119  147.4152 C.3     1  UNL1111    -0.0774
     17 C         122.1303  151.4016  145.3982 C.3     1  UNL1111    -0.0790
     18 C         123.3487  152.5696  147.1126 C.3     1  UNL1111    -0.0849
     19 C         123.3124  151.6183  146.1009 C.3     1  UNL1111    -0.0851
     20 H         117.7698  154.3757  146.2604 H       1  UNL1111     0.0603
     21 H         117.6817  152.4948  144.6675 H       1  UNL1111     0.0801
     22 H         118.1671  153.7777  148.5801 H       1  UNL1111     0.0525
     23 H         119.7093  153.1369  149.1221 H       1  UNL1111     0.0525
     24 H         119.4339  151.1063  147.7366 H       1  UNL1111     0.0704
     25 H         117.9551  151.3686  148.6758 H       1  UNL1111     0.0704
     26 H         119.8923  152.2411  143.8883 H       1  UNL1111     0.0607
     27 H         119.5983  150.7713  144.7903 H       1  UNL1111     0.0607
     28 H         118.4653  154.8470  143.9264 H       1  UNL1111     0.0391
     29 H         120.1461  154.5648  144.3540 H       1  UNL1111     0.0391
     30 H         120.4602  155.5382  148.4516 H       1  UNL1111     0.0793
     31 H         118.3125  156.7934  145.2622 H       1  UNL1111     0.0424
     32 H         119.9302  156.8923  144.5711 H       1  UNL1111     0.0424
     33 H         116.9479  150.3119  145.2918 H       1  UNL1111     0.0633
     34 H         116.8237  149.9008  147.0364 H       1  UNL1111     0.0633
     35 H         118.4051  149.7571  146.2088 H       1  UNL1111     0.0633
     36 H         120.1053  157.4173  147.0128 H       1  UNL1111     0.0734
     37 H         122.2711  154.0415  148.2190 H       1  UNL1111     0.0902
     38 H         122.1170  150.6529  144.6086 H       1  UNL1111     0.0897
     39 H         124.2676  152.7387  147.6681 H       1  UNL1111     0.0877
     40 H         124.2036  151.0450  145.8599 H       1  UNL1111     0.0876
@<TRIPOS>UNITY_ATOM_ATTR
1 1
charge -1
2 1
charge 1
@<TRIPOS>BOND
     1     1     2    1
     2     2     5    1
     3     2     7    1
     4     2    14    1
     5     3     4    1
     6     3     5    1
     7     3     9    1
     8     4     6    1
     9     4    10    1
    10     4    12    1
    11     5     8    1
    12     6     7    1
    13     8    11    1
    14     9    13    1
    15    10    11   ar
    16    10    16   ar
    17    11    17   ar
    18    12    15    2
    19    13    15    1
    20    16    18   ar
    21    17    19   ar
    22    18    19   ar
    23     3    20    1
    24     5    21    1
    25     6    22    1
    26     6    23    1
    27     7    24    1
    28     7    25    1
    29     8    26    1
    30     8    27    1
    31     9    28    1
    32     9    29    1
    33    12    30    1
    34    13    31    1
    35    13    32    1
    36    14    33    1
    37    14    34    1
    38    14    35    1
    39    15    36    1
    40    16    37    1
    41    17    38    1
    42    18    39    1
    43    19    40    1
@<TRIPOS>MOLECULE
129668914
 49 53 0 0 0
SMALL
GASTEIGER

@<TRIPOS>ATOM
      1 O         119.2356  151.5104  145.2488 O.2     1  UNL111     -0.5381
      2 O         117.4069  151.5265  147.1083 O.3     1  UNL111     -0.4065
      3 O         120.6100  148.9736  145.6913 O.2     1  UNL111     -0.5485
      4 O         116.5649  154.7002  145.7803 O.2     1  UNL111     -0.3908
      5 N         122.1995  155.7430  145.9723 N.4     1  UNL111      0.4275
      6 N         114.0554  153.8812  146.3291 N.4     1  UNL111      0.4456
      7 C         120.1370  153.6894  145.8651 C.3     1  UNL111      0.0580
      8 C         120.1147  154.7749  146.9513 C.3     1  UNL111     -0.0012
      9 C         118.8339  152.8904  145.5965 C.3     1  UNL111      0.1142
     10 C         121.6077  155.1316  147.2633 C.3     1  UNL111     -0.0205
     11 C         120.7532  154.2644  144.5693 C.3     1  UNL111     -0.0252
     12 C         120.9687  152.5421  146.3285 C.3     1  UNL111      0.0241
     13 C         117.8113  152.8543  146.7868 C.3     1  UNL111      0.1475
     14 C         122.4439  153.9218  147.7859 C.3     1  UNL111     -0.0213
     15 C         122.1606  154.8315  144.7666 C.3     1  UNL111     -0.0363
     16 C         122.0770  152.6062  147.1550 C.3     1  UNL111     -0.0425
     17 C         119.3006  154.3650  148.1523 C.2     1  UNL111     -0.0810
     18 C         120.4471  151.3515  145.8737 C.3     1  UNL111      0.1060
     19 C         118.2779  153.4988  148.0665 C.2     1  UNL111     -0.0387
     20 C         116.5356  153.6074  146.3587 C.2     1  UNL111      0.1420
     21 C         122.7254  151.4027  147.4445 C.3     1  UNL111     -0.0573
     22 C         123.5716  156.3513  146.1597 C.3     1  UNL111     -0.0442
     23 C         121.0856  150.1634  146.1369 C.3     1  UNL111      0.0918
     24 C         122.2389  150.1875  146.9199 C.3     1  UNL111     -0.0140
     25 C         115.1938  152.9887  146.7354 C.3     1  UNL111      0.0586
     26 H         118.0774  150.9102  146.7447 H       1  UNL111      0.2523
     27 H         119.9221  149.1468  145.0249 H       1  UNL111      0.3393
     28 H         121.6055  156.5519  145.7413 H       1  UNL111      0.1328
     29 H         113.1378  153.4865  146.5724 H       1  UNL111      0.1438
     30 H         114.0744  154.0573  145.3146 H       1  UNL111      0.1438
     31 H         114.1403  154.8065  146.7727 H       1  UNL111      0.1438
     32 H         119.6256  155.6774  146.5566 H       1  UNL111      0.0721
     33 H         118.3443  153.2816  144.6958 H       1  UNL111      0.1489
     34 H         121.6478  155.9427  148.0009 H       1  UNL111      0.0854
     35 H         120.0990  155.0616  144.1917 H       1  UNL111      0.0545
     36 H         120.7952  153.5047  143.7778 H       1  UNL111      0.0545
     37 H         122.2445  153.8253  148.8614 H       1  UNL111      0.0615
     38 H         123.5180  154.0974  147.6796 H       1  UNL111      0.0615
     39 H         122.9106  154.0475  144.9102 H       1  UNL111      0.0738
     40 H         122.4511  155.4328  143.8981 H       1  UNL111      0.0738
     41 H         119.5374  154.8063  149.1210 H       1  UNL111      0.0821
     42 H         117.7379  153.2439  148.9793 H       1  UNL111      0.0986
     43 H         123.5982  151.3788  148.0961 H       1  UNL111      0.0939
     44 H         124.3087  155.5520  146.2592 H       1  UNL111      0.0667
     45 H         123.5446  156.9836  147.0504 H       1  UNL111      0.0667
     46 H         123.7859  156.9600  145.2770 H       1  UNL111      0.0667
     47 H         122.7489  149.2542  147.1540 H       1  UNL111      0.1139
     48 H         115.0444  152.0438  146.2084 H       1  UNL111      0.1100
     49 H         115.1178  152.8651  147.8179 H       1  UNL111      0.1100
@<TRIPOS>UNITY_ATOM_ATTR
5 1
charge 1
6 1
charge 1
@<TRIPOS>BOND
     1     1     9    1
     2     1    18    1
     3     2    13    1
     4     3    23    1
     5     4    20    2
     6     5    10    1
     7     5    15    1
     8     5    22    1
     9     6    25    1
    10     7     8    1
    11     7     9    1
    12     7    11    1
    13     7    12    1
    14     8    10    1
    15     8    17    1
    16     9    13    1
    17    10    14    1
    18    11    15    1
    19    12    16   ar
    20    12    18   ar
    21    13    19    1
    22    13    20    1
    23    14    16    1
    24    16    21   ar
    25    17    19    2
    26    18    23   ar
    27    20    25    1
    28    21    24   ar
    29    23    24   ar
    30     2    26    1
    31     3    27    1
    32     5    28    1
    33     6    29    1
    34     6    30    1
    35     6    31    1
    36     8    32    1
    37     9    33    1
    38    10    34    1
    39    11    35    1
    40    11    36    1
    41    14    37    1
    42    14    38    1
    43    15    39    1
    44    15    40    1
    45    17    41    1
    46    19    42    1
    47    21    43    1
    48    22    44    1
    49    22    45    1
    50    22    46    1
    51    24    47    1
    52    25    48    1
    53    25    49    1
@<TRIPOS>MOLECULE
129677293
 31 35 0 0 0
SMALL
GASTEIGER

@<TRIPOS>ATOM
      1 O         119.1763  151.4394  145.9494 O.2     1  UNL111     -0.5180
      2 O         121.4797  150.2637  144.6414 O.3     1  UNL111     -0.2658
      3 O         116.6334  152.2694  144.5894 O.3     1  UNL111     -0.2655
      4 O         123.4212  151.7140  147.1962 O.2     1  UNL111     -0.4008
      5 O         115.8057  150.6333  147.0055 O.2     1  UNL111     -0.3926
      6 N         122.1825  155.9738  146.7460 N.4     1  UNL111      0.4583
      7 C         120.5252  153.3124  146.4698 C.3     1  UNL111      0.1156
      8 C         121.2016  154.2166  145.3408 C.3     1  UNL111      0.0730
      9 C         120.5212  151.8397  146.1613 C.3     1  UNL111      0.1933
     10 C         121.1562  155.6477  145.7312 C.3     1  UNL111      0.0592
     11 C         119.0832  153.6712  146.5198 C.2     1  UNL111      0.0396
     12 C         121.2125  153.6809  147.7235 C.3     1  UNL111      0.0781
     13 C         119.7635  155.9095  146.0663 C.3     1  UNL111      0.0645
     14 C         121.7618  151.2336  145.4679 C.3     1  UNL111      0.2238
     15 C         118.6738  155.0969  146.5090 C.2     1  UNL111     -0.0059
     16 C         122.0023  154.9701  147.8138 C.3     1  UNL111      0.0622
     17 C         118.3505  152.5867  146.1781 C.2     1  UNL111      0.1156
     18 C         122.1917  153.5471  144.5940 C.2     1  UNL111     -0.0020
     19 C         116.8271  152.6228  145.8448 C.3     1  UNL111      0.2281
     20 C         122.3397  152.3629  144.6868 C.2     1  UNL111      0.0496
     21 C         117.4312  155.2534  146.1798 C.2     1  UNL111     -0.0100
     22 C         116.4986  154.0826  145.8981 C.3     1  UNL111      0.1271
     23 C         122.1900  157.3508  147.2288 C.3     1  UNL111      0.0984
     24 C         122.7262  150.8599  146.6143 C.2     1  UNL111      0.1492
     25 C         116.1082  151.8170  146.9473 C.2     1  UNL111      0.1825
     26 C         122.7401  149.4309  147.1107 C.3     1  UNL111      0.0241
     27 C         115.7631  152.4327  148.3154 C.3     1  UNL111      0.1586
     28 H         123.1030  155.7691  146.3285 H       1  UNL111      0.1735
     29 H         123.3830  149.3616  147.9934 H       1  UNL111      0.0621
     30 H         123.1439  148.7687  146.3410 H       1  UNL111      0.0621
     31 H         121.7307  149.1238  147.3955 H       1  UNL111      0.0621
@<TRIPOS>UNITY_ATOM_ATTR
6 1
charge 1
@<TRIPOS>BOND
     1     1     9    1
     2     1    17    1
     3     2    14    1
     4     3    19    1
     5     4    24    2
     6     5    25    2
     7     6    10    1
     8     6    16    1
     9     6    23    1
    10     7     8    1
    11     7     9    1
    12     7    11    1
    13     7    12    1
    14     8    10    1
    15     8    18    1
    16     9    14    1
    17    10    13    1
    18    11    15    1
    19    11    17    2
    20    12    16    1
    21    13    15    1
    22    14    20    1
    23    14    24    1
    24    15    21    2
    25    17    19    1
    26    18    20    2
    27    19    22    1
    28    19    25    1
    29    21    22    1
    30    24    26    1
    31    25    27    1
    32     6    28    1
    33    26    29    1
    34    26    30    1
    35    26    31    1
@<TRIPOS>MOLECULE
129677299
 28 32 0 0 0
SMALL
GASTEIGER

@<TRIPOS>ATOM
      1 O         121.4444  154.0578  147.2724 O.2     1  UNL111     -0.5198
      2 O         119.7045  156.9463  147.4441 O.3     1  UNL111     -0.2744
      3 O         122.8873  151.2436  147.8950 O.3     1  UNL111     -0.2666
      4 O         122.9447  152.2879  144.5121 O.2     1  UNL111     -0.4010
      5 N         116.1364  153.1089  146.2513 N.4     1  UNL111      0.4583
      6 C         119.1203  153.6943  147.0756 C.3     1  UNL111      0.1142
      7 C         118.3989  153.8256  145.6477 C.3     1  UNL111      0.0724
      8 C         117.3579  152.7924  145.4816 C.3     1  UNL111      0.0591
      9 C         120.1994  154.7251  147.3126 C.3     1  UNL111      0.1877
     10 C         119.8560  152.3951  147.0605 C.2     1  UNL111      0.0392
     11 C         118.0201  153.7087  148.0572 C.3     1  UNL111      0.0778
     12 C         118.0366  151.5405  145.7656 C.3     1  UNL111      0.0645
     13 C         119.2079  151.1744  146.5010 C.2     1  UNL111     -0.0060
     14 C         116.6031  153.4140  147.6180 C.3     1  UNL111      0.0621
     15 C         121.1827  152.6562  147.1524 C.2     1  UNL111      0.1142
     16 C         120.0411  156.0371  146.6485 C.3     1  UNL111      0.2110
     17 C         118.5275  155.0792  145.0173 C.2     1  UNL111     -0.0041
     18 C         122.3088  151.6534  146.7869 C.3     1  UNL111      0.2221
     19 C         119.2389  155.9312  145.4653 C.2     1  UNL111      0.0424
     20 C         120.0759  150.3087  146.0794 C.2     1  UNL111     -0.0101
     21 C         121.5795  150.4906  146.2105 C.3     1  UNL111      0.1260
     22 C         115.0723  152.1113  146.2033 C.3     1  UNL111      0.0984
     23 C         123.2118  152.3034  145.7247 C.2     1  UNL111      0.1487
     24 C         124.4394  153.0542  146.1965 C.3     1  UNL111      0.0240
     25 H         115.7652  153.9975  145.8837 H       1  UNL111      0.1735
     26 H         124.9079  153.5554  145.3441 H       1  UNL111      0.0621
     27 H         125.1640  152.3571  146.6244 H       1  UNL111      0.0621
     28 H         124.1618  153.8153  146.9295 H       1  UNL111      0.0621
@<TRIPOS>UNITY_ATOM_ATTR
5 1
charge 1
@<TRIPOS>BOND
     1     1     9    1
     2     1    15    1
     3     2    16    1
     4     3    18    1
     5     4    23    2
     6     5     8    1
     7     5    14    1
     8     5    22    1
     9     6     7    1
    10     6     9    1
    11     6    10    1
    12     6    11    1
    13     7     8    1
    14     7    17    1
    15     8    12    1
    16     9    16    1
    17    10    13    1
    18    10    15    2
    19    11    14    1
    20    12    13    1
    21    13    20    2
    22    15    18    1
    23    16    19    1
    24    17    19    2
    25    18    21    1
    26    18    23    1
    27    20    21    1
    28    23    24    1
    29     5    25    1
    30    24    26    1
    31    24    27    1
    32    24    28    1
@<TRIPOS>MOLECULE
129695836
 74 79 0 0 0
SMALL
GASTEIGER

@<TRIPOS>ATOM
      1 O         117.9125  154.5064  148.1372 O.3     1  UNL111     -0.4225
      2 O         120.8208  154.6240  148.7747 O.3     1  UNL111     -0.4308
      3 O         122.3895  154.1385  146.4069 O.3     1  UNL111     -0.4380
      4 O         116.1888  156.4854  148.0462 O.3     1  UNL111     -0.4387
      5 N         116.2485  151.0372  144.4836 N.4     1  UNL111      0.4272
      6 C         116.7967  153.0462  146.5342 C.3     1  UNL111      0.0304
      7 C         116.2053  153.4300  145.1488 C.3     1  UNL111     -0.0082
      8 C         118.3056  152.9760  146.4829 C.2     1  UNL111     -0.0331
      9 C         116.5904  154.1162  147.6374 C.3     1  UNL111      0.0585
     10 C         118.8763  153.4939  147.7685 C.3     1  UNL111      0.0687
     11 C         116.7801  152.4387  144.1096 C.3     1  UNL111     -0.0231
     12 C         116.2162  151.6643  146.9046 C.3     1  UNL111     -0.0312
     13 C         119.0105  152.7869  145.3538 C.2     1  UNL111     -0.0687
     14 C         118.3262  152.4983  144.0377 C.3     1  UNL111     -0.0283
     15 C         120.2520  154.1760  147.5326 C.3     1  UNL111      0.0735
     16 C         121.2335  153.2925  146.6614 C.3     1  UNL111      0.0741
     17 C         116.5866  150.5842  145.8863 C.3     1  UNL111     -0.0374
     18 C         115.8725  155.4074  147.1771 C.3     1  UNL111      0.0497
     19 C         120.5061  153.0418  145.2950 C.3     1  UNL111      0.0055
     20 C         116.3999  154.8870  144.8160 C.2     1  UNL111     -0.0886
     21 C         118.8849  152.4594  148.9066 C.3     1  UNL111     -0.0240
     22 C         116.2313  155.8080  145.7770 C.2     1  UNL111     -0.0708
     23 C         121.6920  152.0185  147.3960 C.ar    1  UNL111     -0.0334
     24 C         116.5575  149.9749  143.4609 C.3     1  UNL111     -0.0443
     25 C         123.4027  153.6100  145.5515 C.3     1  UNL111      0.0073
     26 C         121.3721  150.7167  146.9679 C.ar    1  UNL111     -0.0700
     27 C         122.5039  152.1393  148.5411 C.ar    1  UNL111     -0.0700
     28 C         124.5739  154.5878  145.5595 C.3     1  UNL111     -0.0388
     29 C         121.8299  149.5923  147.6641 C.ar    1  UNL111     -0.0837
     30 C         122.9582  151.0180  149.2378 C.ar    1  UNL111     -0.0837
     31 C         122.6192  149.7435  148.7997 C.ar    1  UNL111     -0.0863
     32 C         125.7171  154.1063  144.6688 C.3     1  UNL111     -0.0577
     33 C         126.8907  155.0849  144.6927 C.3     1  UNL111     -0.0651
     34 C         128.0317  154.6080  143.8083 C.3     1  UNL111     -0.0697
     35 H         120.1757  155.2367  149.1716 H       1  UNL111      0.2426
     36 H         117.0975  156.3130  148.3639 H       1  UNL111      0.2411
     37 H         115.2226  151.1216  144.4558 H       1  UNL111      0.1327
     38 H         115.1135  153.2866  145.1693 H       1  UNL111      0.0707
     39 H         116.0556  153.7095  148.5044 H       1  UNL111      0.1164
     40 H         116.3589  152.6449  143.1177 H       1  UNL111      0.0850
     41 H         115.1223  151.7378  146.9702 H       1  UNL111      0.0531
     42 H         116.5497  151.3331  147.8929 H       1  UNL111      0.0531
     43 H         118.5890  153.3130  143.3494 H       1  UNL111      0.0592
     44 H         118.7429  151.5862  143.6008 H       1  UNL111      0.0592
     45 H         120.0852  155.1103  146.9753 H       1  UNL111      0.1263
     46 H         117.6514  150.3310  145.9124 H       1  UNL111      0.0737
     47 H         116.0093  149.6727  146.0764 H       1  UNL111      0.0737
     48 H         114.7868  155.2617  147.2173 H       1  UNL111      0.1167
     49 H         120.6369  153.9402  144.6733 H       1  UNL111      0.0633
     50 H         120.9970  152.2384  144.7329 H       1  UNL111      0.0633
     51 H         116.6032  155.2061  143.7965 H       1  UNL111      0.0809
     52 H         117.8893  152.3195  149.3409 H       1  UNL111      0.0444
     53 H         119.5088  152.7870  149.7446 H       1  UNL111      0.0444
     54 H         119.2387  151.4795  148.5800 H       1  UNL111      0.0444
     55 H         116.3017  156.8697  145.5506 H       1  UNL111      0.0899
     56 H         117.6157  149.7129  143.5226 H       1  UNL111      0.0667
     57 H         116.3007  150.3657  142.4732 H       1  UNL111      0.0667
     58 H         115.9365  149.1043  143.6891 H       1  UNL111      0.0667
     59 H         123.0150  153.5099  144.5328 H       1  UNL111      0.0890
     60 H         123.7418  152.6298  145.8997 H       1  UNL111      0.0890
     61 H         120.7647  150.5384  146.0877 H       1  UNL111      0.0918
     62 H         122.8013  153.1269  148.8952 H       1  UNL111      0.0918
     63 H         124.9263  154.7210  146.5901 H       1  UNL111      0.0435
     64 H         124.2256  155.5749  145.2307 H       1  UNL111      0.0435
     65 H         121.5788  148.5935  147.3163 H       1  UNL111      0.0878
     66 H         123.5843  151.1463  150.1176 H       1  UNL111      0.0878
     67 H         122.9801  148.8708  149.3382 H       1  UNL111      0.0874
     68 H         125.3566  153.9891  143.6396 H       1  UNL111      0.0334
     69 H         126.0555  153.1192  145.0067 H       1  UNL111      0.0334
     70 H         127.2568  155.2023  145.7194 H       1  UNL111      0.0307
     71 H         126.5594  156.0725  144.3514 H       1  UNL111      0.0307
     72 H         128.4071  153.6356  144.1426 H       1  UNL111      0.0256
     73 H         128.8607  155.3218  143.8414 H       1  UNL111      0.0256
     74 H         127.7073  154.5120  142.7672 H       1  UNL111      0.0256
@<TRIPOS>UNITY_ATOM_ATTR
5 1
charge 1
@<TRIPOS>BOND
     1     1     9    1
     2     1    10    1
     3     2    15    1
     4     3    16    1
     5     3    25    1
     6     4    18    1
     7     5    11    1
     8     5    17    1
     9     5    24    1
    10     6     7    1
    11     6     8    1
    12     6     9    1
    13     6    12    1
    14     7    11    1
    15     7    20    1
    16     8    10    1
    17     8    13    2
    18     9    18    1
    19    10    15    1
    20    10    21    1
    21    11    14    1
    22    12    17    1
    23    13    14    1
    24    13    19    1
    25    15    16    1
    26    16    19    1
    27    16    23    1
    28    18    22    1
    29    20    22    2
    30    23    26   ar
    31    23    27   ar
    32    25    28    1
    33    26    29   ar
    34    27    30   ar
    35    28    32    1
    36    29    31   ar
    37    30    31   ar
    38    32    33    1
    39    33    34    1
    40     2    35    1
    41     4    36    1
    42     5    37    1
    43     7    38    1
    44     9    39    1
    45    11    40    1
    46    12    41    1
    47    12    42    1
    48    14    43    1
    49    14    44    1
    50    15    45    1
    51    17    46    1
    52    17    47    1
    53    18    48    1
    54    19    49    1
    55    19    50    1
    56    20    51    1
    57    21    52    1
    58    21    53    1
    59    21    54    1
    60    22    55    1
    61    24    56    1
    62    24    57    1
    63    24    58    1
    64    25    59    1
    65    25    60    1
    66    26    61    1
    67    27    62    1
    68    28    63    1
    69    28    64    1
    70    29    65    1
    71    30    66    1
    72    31    67    1
    73    32    68    1
    74    32    69    1
    75    33    70    1
    76    33    71    1
    77    34    72    1
    78    34    73    1
    79    34    74    1
@<TRIPOS>MOLECULE
129780026
 56 61 0 0 0
SMALL
GASTEIGER

@<TRIPOS>ATOM
      1 CL        112.0701  154.2541  146.1434 Cl      1  UNL111     -0.1313
      2 O         120.4841  151.4579  147.7145 O.2     1  UNL111     -0.5564
      3 O         120.8329  150.0093  145.5486 O.3     1  UNL111     -0.4349
      4 O         118.4782  151.6540  145.4756 O.3     1  UNL111     -0.4267
      5 N         124.0139  155.1131  146.8288 N.4     1  UNL111      0.4274
      6 C         122.4487  152.6724  147.0717 C.3     1  UNL111      0.0502
      7 C         123.6944  152.7316  146.1763 C.3     1  UNL111     -0.0030
      8 C         121.9096  151.2643  147.4133 C.3     1  UNL111      0.0865
      9 C         123.7651  154.1796  145.6177 C.3     1  UNL111     -0.0209
     10 C         121.2192  153.1983  146.4213 C.2     1  UNL111      0.0089
     11 C         122.7319  153.5465  148.3175 C.3     1  UNL111     -0.0263
     12 C         122.5104  154.5773  144.7864 C.3     1  UNL111     -0.0233
     13 C         121.1854  154.1698  145.3774 C.2     1  UNL111     -0.0532
     14 C         120.1615  152.5295  146.8675 C.2     1  UNL111      0.0630
     15 C         122.9978  155.0089  147.9489 C.3     1  UNL111     -0.0364
     16 C         122.0493  150.1987  146.2736 C.3     1  UNL111      0.0600
     17 C         123.7784  151.6487  145.1439 C.2     1  UNL111     -0.0869
     18 C         118.7571  152.7499  146.3638 C.3     1  UNL111      0.0808
     19 C         123.0611  150.5200  145.2166 C.2     1  UNL111     -0.0672
     20 C         118.6742  154.0957  145.5577 C.3     1  UNL111      0.0014
     21 C         119.9837  154.6036  144.9605 C.2     1  UNL111     -0.0851
     22 C         124.2664  156.5481  146.4433 C.3     1  UNL111     -0.0442
     23 C         117.7402  152.7083  147.5336 C.3     1  UNL111      0.0086
     24 C         116.3164  153.0956  147.1833 C.ar    1  UNL111     -0.0661
     25 C         115.7470  154.2649  147.7098 C.ar    1  UNL111     -0.0727
     26 C         115.5413  152.2848  146.3415 C.ar    1  UNL111     -0.0727
     27 C         114.4353  154.6221  147.3876 C.ar    1  UNL111     -0.0506
     28 C         114.2302  152.6420  146.0189 C.ar    1  UNL111     -0.0506
     29 C         113.6833  153.8102  146.5418 C.ar    1  UNL111      0.0159
     30 H         120.1213  149.9199  146.2140 H       1  UNL111      0.2424
     31 H         119.2654  151.5110  144.9152 H       1  UNL111      0.2456
     32 H         124.9064  154.7974  147.2332 H       1  UNL111      0.1328
     33 H         124.5876  152.5725  146.8000 H       1  UNL111      0.0719
     34 H         122.3999  150.8824  148.3174 H       1  UNL111      0.1409
     35 H         124.6590  154.2911  144.9910 H       1  UNL111      0.0854
     36 H         123.6022  153.1439  148.8528 H       1  UNL111      0.0544
     37 H         121.8997  153.5112  149.0325 H       1  UNL111      0.0544
     38 H         122.5960  154.0724  143.8140 H       1  UNL111      0.0612
     39 H         122.5129  155.6500  144.5671 H       1  UNL111      0.0612
     40 H         122.0901  155.5304  147.6292 H       1  UNL111      0.0738
     41 H         123.4154  155.5448  148.8084 H       1  UNL111      0.0738
     42 H         122.3004  149.2341  146.7291 H       1  UNL111      0.1220
     43 H         124.4938  151.7544  144.3291 H       1  UNL111      0.0812
     44 H         123.1857  149.7622  144.4431 H       1  UNL111      0.0909
     45 H         118.3081  154.9035  146.2036 H       1  UNL111      0.0618
     46 H         117.9574  153.9782  144.7354 H       1  UNL111      0.0618
     47 H         119.8983  155.3336  144.1585 H       1  UNL111      0.0807
     48 H         123.3255  157.0057  146.1301 H       1  UNL111      0.0667
     49 H         125.0038  156.5606  145.6369 H       1  UNL111      0.0667
     50 H         124.6667  157.0622  147.3214 H       1  UNL111      0.0667
     51 H         118.0931  153.3628  148.3425 H       1  UNL111      0.0652
     52 H         117.7013  151.6955  147.9587 H       1  UNL111      0.0652
     53 H         116.3156  154.9072  148.3781 H       1  UNL111      0.0909
     54 H         115.9542  151.3652  145.9295 H       1  UNL111      0.0909
     55 H         114.0041  155.5298  147.8016 H       1  UNL111      0.0990
     56 H         113.6439  152.0035  145.3632 H       1  UNL111      0.0990
@<TRIPOS>UNITY_ATOM_ATTR
5 1
charge 1
@<TRIPOS>BOND
     1     1    29    1
     2     2     8    1
     3     2    14    1
     4     3    16    1
     5     4    18    1
     6     5     9    1
     7     5    15    1
     8     5    22    1
     9     6     7    1
    10     6     8    1
    11     6    10    1
    12     6    11    1
    13     7     9    1
    14     7    17    1
    15     8    16    1
    16     9    12    1
    17    10    13    1
    18    10    14    2
    19    11    15    1
    20    12    13    1
    21    13    21    2
    22    14    18    1
    23    16    19    1
    24    17    19    2
    25    18    20    1
    26    18    23    1
    27    20    21    1
    28    23    24    1
    29    24    25   ar
    30    24    26   ar
    31    25    27   ar
    32    26    28   ar
    33    27    29   ar
    34    28    29   ar
    35     3    30    1
    36     4    31    1
    37     5    32    1
    38     7    33    1
    39     8    34    1
    40     9    35    1
    41    11    36    1
    42    11    37    1
    43    12    38    1
    44    12    39    1
    45    15    40    1
    46    15    41    1
    47    16    42    1
    48    17    43    1
    49    19    44    1
    50    20    45    1
    51    20    46    1
    52    21    47    1
    53    22    48    1
    54    22    49    1
    55    22    50    1
    56    23    51    1
    57    23    52    1
    58    25    53    1
    59    26    54    1
    60    27    55    1
    61    28    56    1
@<TRIPOS>MOLECULE
129780127
 56 61 0 0 0
SMALL
GASTEIGER

@<TRIPOS>ATOM
      1 CL        112.1389  155.1550  146.0956 Cl      1  UNL111     -0.1294
      2 O         120.1942  151.3783  147.4799 O.2     1  UNL111     -0.5564
      3 O         120.4537  150.1447  145.1726 O.3     1  UNL111     -0.4349
      4 O         118.2767  152.0170  145.2466 O.3     1  UNL111     -0.4266
      5 N         124.0915  154.7300  147.0547 N.4     1  UNL111      0.4274
      6 C         122.2857  152.4490  147.0042 C.3     1  UNL111      0.0502
      7 C         123.5541  152.4775  146.1397 C.3     1  UNL111     -0.0030
      8 C         121.6007  151.0743  147.1806 C.3     1  UNL111      0.0865
      9 C         123.7829  153.9626  145.7447 C.3     1  UNL111     -0.0209
     10 C         121.1320  153.1643  146.3972 C.2     1  UNL111      0.0089
     11 C         122.6218  153.1502  148.3427 C.3     1  UNL111     -0.0263
     12 C         122.5959  154.5730  144.9433 C.3     1  UNL111     -0.0233
     13 C         121.2220  154.2409  145.4659 C.2     1  UNL111     -0.0532
     14 C         120.0017  152.5622  146.7512 C.2     1  UNL111      0.0631
     15 C         123.0412  154.6093  148.1411 C.3     1  UNL111     -0.0364
     16 C         121.6633  150.1295  145.9327 C.3     1  UNL111      0.0600
     17 C         123.5573  151.5093  144.9960 C.2     1  UNL111     -0.0869
     18 C         118.6398  152.9770  146.2537 C.3     1  UNL111      0.0818
     19 C         122.7297  150.4582  144.9332 C.2     1  UNL111     -0.0672
     20 C         118.7120  154.4031  145.5988 C.3     1  UNL111      0.0015
     21 C         120.0806  154.8368  145.0809 C.2     1  UNL111     -0.0851
     22 C         124.4951  156.1651  146.8331 C.3     1  UNL111     -0.0442
     23 C         117.5938  152.9134  147.3965 C.3     1  UNL111      0.0157
     24 C         116.2242  153.4759  147.0683 C.ar    1  UNL111     -0.0337
     25 C         115.7594  154.6356  147.7069 C.ar    1  UNL111      0.0216
     26 C         115.3946  152.8384  146.1344 C.ar    1  UNL111     -0.0727
     27 C         114.4974  155.1537  147.4053 C.ar    1  UNL111     -0.0506
     28 C         114.1332  153.3565  145.8325 C.ar    1  UNL111     -0.0833
     29 C         113.6906  154.5132  146.4679 C.ar    1  UNL111     -0.0784
     30 H         119.7193  150.0569  145.8130 H       1  UNL111      0.2424
     31 H         119.0597  151.8570  144.6850 H       1  UNL111      0.2456
     32 H         124.9374  154.2835  147.4354 H       1  UNL111      0.1328
     33 H         124.4105  152.1623  146.7556 H       1  UNL111      0.0719
     34 H         122.0270  150.5492  148.0444 H       1  UNL111      0.1409
     35 H         124.6994  154.0497  145.1477 H       1  UNL111      0.0854
     36 H         123.4335  152.6059  148.8435 H       1  UNL111      0.0544
     37 H         121.7718  153.1227  149.0369 H       1  UNL111      0.0544
     38 H         122.6563  154.1698  143.9227 H       1  UNL111      0.0612
     39 H         122.7107  155.6572  144.8432 H       1  UNL111      0.0612
     40 H         122.1983  155.2517  147.8672 H       1  UNL111      0.0738
     41 H         123.4874  155.0041  149.0606 H       1  UNL111      0.0738
     42 H         121.8047  149.1008  146.2830 H       1  UNL111      0.1220
     43 H         124.3009  151.6289  144.2089 H       1  UNL111      0.0812
     44 H         122.7987  149.7794  144.0830 H       1  UNL111      0.0909
     45 H         118.4110  155.1697  146.3237 H       1  UNL111      0.0618
     46 H         118.0088  154.4480  144.7577 H       1  UNL111      0.0618
     47 H         120.0891  155.6538  144.3627 H       1  UNL111      0.0807
     48 H         123.6128  156.7469  146.5579 H       1  UNL111      0.0667
     49 H         125.2509  156.1895  146.0443 H       1  UNL111      0.0667
     50 H         124.9213  156.5381  147.7684 H       1  UNL111      0.0667
     51 H         117.9879  153.4398  148.2767 H       1  UNL111      0.0667
     52 H         117.4451  151.8702  147.7089 H       1  UNL111      0.0667
     53 H         116.3715  155.1451  148.4474 H       1  UNL111      0.0909
     54 H         115.7255  151.9299  145.6336 H       1  UNL111      0.0990
     55 H         114.1472  156.0523  147.9065 H       1  UNL111      0.0879
     56 H         113.5036  152.8514  145.1048 H       1  UNL111      0.0889
@<TRIPOS>UNITY_ATOM_ATTR
5 1
charge 1
@<TRIPOS>BOND
     1     1    25    1
     2     2     8    1
     3     2    14    1
     4     3    16    1
     5     4    18    1
     6     5     9    1
     7     5    15    1
     8     5    22    1
     9     6     7    1
    10     6     8    1
    11     6    10    1
    12     6    11    1
    13     7     9    1
    14     7    17    1
    15     8    16    1
    16     9    12    1
    17    10    13    1
    18    10    14    2
    19    11    15    1
    20    12    13    1
    21    13    21    2
    22    14    18    1
    23    16    19    1
    24    17    19    2
    25    18    20    1
    26    18    23    1
    27    20    21    1
    28    23    24    1
    29    24    25   ar
    30    24    26   ar
    31    25    27   ar
    32    26    28   ar
    33    27    29   ar
    34    28    29   ar
    35     3    30    1
    36     4    31    1
    37     5    32    1
    38     7    33    1
    39     8    34    1
    40     9    35    1
    41    11    36    1
    42    11    37    1
    43    12    38    1
    44    12    39    1
    45    15    40    1
    46    15    41    1
    47    16    42    1
    48    17    43    1
    49    19    44    1
    50    20    45    1
    51    20    46    1
    52    21    47    1
    53    22    48    1
    54    22    49    1
    55    22    50    1
    56    23    51    1
    57    23    52    1
    58    26    53    1
    59    27    54    1
    60    28    55    1
    61    29    56    1
@<TRIPOS>MOLECULE
129866705
 44 48 0 0 0
SMALL
GASTEIGER

@<TRIPOS>ATOM
      1 F         114.5350  153.3849  145.5104 F       1  UNL111     -0.1205
      2 F         115.3135  152.8259  147.4789 F       1  UNL111     -0.1205
      3 F         115.5137  151.4450  145.7725 F       1  UNL111     -0.1205
      4 O         119.2359  154.4961  145.0993 O.3     1  UNL111     -0.5430
      5 O         119.3085  156.2252  147.0588 O.3     1  UNL111     -0.4348
      6 O         116.7658  153.3476  145.8013 O.3     1  UNL111     -0.4098
      7 N         123.4383  151.5810  145.8593 N.4     1  UNL111      0.4275
      8 C         121.4219  153.6712  145.6998 C.3     1  UNL111      0.0533
      9 C         122.6202  153.7965  146.6475 C.3     1  UNL111     -0.0026
     10 C         122.9675  152.3512  147.1199 C.3     1  UNL111     -0.0206
     11 C         120.6120  154.9436  145.3766 C.3     1  UNL111      0.0903
     12 C         121.8606  152.9031  144.4319 C.3     1  UNL111     -0.0259
     13 C         120.3125  152.9148  146.3471 C.ar    1  UNL111      0.0244
     14 C         121.7989  151.6273  147.8606 C.3     1  UNL111     -0.0213
     15 C         122.4193  151.5132  144.7422 C.3     1  UNL111     -0.0364
     16 C         120.4385  151.9180  147.2917 C.ar    1  UNL111     -0.0424
     17 C         120.6032  156.0358  146.4944 C.3     1  UNL111      0.0605
     18 C         122.4099  154.7903  147.7514 C.2     1  UNL111     -0.0869
     19 C         119.0907  153.3849  145.9049 C.ar    1  UNL111      0.1153
     20 C         121.5191  155.7878  147.6580 C.2     1  UNL111     -0.0672
     21 C         119.2575  151.3237  147.7332 C.ar    1  UNL111     -0.0561
     22 C         124.0288  150.2269  146.1580 C.3     1  UNL111     -0.0442
     23 C         117.9041  152.8071  146.3135 C.ar    1  UNL111      0.1459
     24 C         118.0036  151.7518  147.2330 C.ar    1  UNL111     -0.0039
     25 C         115.5339  152.7416  146.1503 C.3     1  UNL111      0.4823
     26 H         118.6568  156.0043  146.3664 H       1  UNL111      0.2424
     27 H         124.2295  152.1241  145.4863 H       1  UNL111      0.1328
     28 H         123.4831  154.1835  146.0849 H       1  UNL111      0.0720
     29 H         123.8472  152.3751  147.7750 H       1  UNL111      0.0854
     30 H         120.9945  155.4035  144.4564 H       1  UNL111      0.1417
     31 H         122.6291  153.4885  143.9097 H       1  UNL111      0.0544
     32 H         121.0307  152.7915  143.7220 H       1  UNL111      0.0544
     33 H         121.7942  151.9862  148.8983 H       1  UNL111      0.0615
     34 H         121.9606  150.5464  147.9017 H       1  UNL111      0.0615
     35 H         121.6392  150.8054  145.0397 H       1  UNL111      0.0738
     36 H         122.9333  151.1084  143.8634 H       1  UNL111      0.0738
     37 H         120.8881  156.9916  146.0391 H       1  UNL111      0.1221
     38 H         123.0382  154.7376  148.6394 H       1  UNL111      0.0812
     39 H         121.4301  156.4977  148.4806 H       1  UNL111      0.0909
     40 H         119.2780  150.5410  148.4906 H       1  UNL111      0.0940
     41 H         123.2269  149.5352  146.4241 H       1  UNL111      0.0667
     42 H         124.7458  150.3395  146.9749 H       1  UNL111      0.0667
     43 H         124.5437  149.8838  145.2565 H       1  UNL111      0.0667
     44 H         117.1192  151.2527  147.6247 H       1  UNL111      0.1152
@<TRIPOS>UNITY_ATOM_ATTR
7 1
charge 1
@<TRIPOS>BOND
     1     1    25    1
     2     2    25    1
     3     3    25    1
     4     4    11    1
     5     4    19    1
     6     5    17    1
     7     6    23    1
     8     6    25    1
     9     7    10    1
    10     7    15    1
    11     7    22    1
    12     8     9    1
    13     8    11    1
    14     8    12    1
    15     8    13    1
    16     9    10    1
    17     9    18    1
    18    10    14    1
    19    11    17    1
    20    12    15    1
    21    13    16   ar
    22    13    19   ar
    23    14    16    1
    24    16    21   ar
    25    17    20    1
    26    18    20    2
    27    19    23   ar
    28    21    24   ar
    29    23    24   ar
    30     5    26    1
    31     7    27    1
    32     9    28    1
    33    10    29    1
    34    11    30    1
    35    12    31    1
    36    12    32    1
    37    14    33    1
    38    14    34    1
    39    15    35    1
    40    15    36    1
    41    17    37    1
    42    18    38    1
    43    20    39    1
    44    21    40    1
    45    22    41    1
    46    22    42    1
    47    22    43    1
    48    24    44    1
@<TRIPOS>MOLECULE
133562483
 53 57 0 0 0
SMALL
GASTEIGER

@<TRIPOS>ATOM
      1 O         121.7240  154.0016  147.3643 O.2     1  UNL1111    -0.5277
      2 O         121.6826  156.8996  147.4561 O.2     1  UNL1111    -0.3926
      3 O         123.6114  152.8265  145.4202 O.3     1  UNL1111    -0.4019
      4 O         115.2642  151.1184  146.9695 O.3     1  UNL1111    -0.5041
      5 O         114.7117  152.8188  145.5553 O.2     1  UNL1111    -0.2917
      6 O         125.3075  151.9443  146.5418 O.3     1  UNL1111    -0.4734
      7 O         123.2256  151.0319  146.8653 O.2     1  UNL1111    -0.2345
      8 N         116.7958  152.7623  146.5422 N.am    1  UNL1111    -0.2755
      9 C         119.3280  154.0272  147.1054 C.3     1  UNL1111     0.0653
     10 C         118.1131  154.8528  146.6790 C.3     1  UNL1111     0.0148
     11 C         117.2648  153.9280  145.7574 C.3     1  UNL1111     0.0313
     12 C         120.5259  154.7730  147.7057 C.3     1  UNL1111     0.1418
     13 C         118.8422  152.8662  147.9976 C.3     1  UNL1111    -0.0110
     14 C         120.0390  153.4862  145.9127 C.3     1  UNL1111     0.0244
     15 C         118.0162  153.4631  144.4670 C.3     1  UNL1111    -0.0078
     16 C         117.7816  151.9969  147.3121 C.3     1  UNL1111     0.0139
     17 C         119.4736  153.1520  144.6950 C.3     1  UNL1111    -0.0436
     18 C         118.4804  156.1871  146.0888 C.2     1  UNL1111    -0.0719
     19 C         121.3943  153.4290  146.1596 C.3     1  UNL1111     0.1201
     20 C         120.6996  156.2094  147.1848 C.2     1  UNL1111     0.1521
     21 C         119.6456  156.8050  146.3210 C.2     1  UNL1111    -0.0036
     22 C         120.3309  152.6439  143.7158 C.3     1  UNL1111    -0.0570
     23 C         122.2403  152.8921  145.2163 C.3     1  UNL1111     0.1514
     24 C         115.5190  152.2738  146.2992 C.2     1  UNL1111     0.2997
     25 C         121.7099  152.5010  143.9804 C.3     1  UNL1111    -0.0023
     26 C         113.9602  150.5723  146.7407 C.3     1  UNL1111     0.0538
     27 C         123.9640  151.8567  146.3428 C.2     1  UNL1111     0.4109
     28 C         113.8332  149.2986  147.5535 C.3     1  UNL1111    -0.0306
     29 C         125.8594  151.0062  147.4734 C.3     1  UNL1111     0.0631
     30 C         126.2103  149.7101  146.7665 C.3     1  UNL1111    -0.0292
     31 H         117.5066  155.0874  147.5668 H       1  UNL1111     0.0676
     32 H         116.3792  154.4862  145.4280 H       1  UNL1111     0.0874
     33 H         120.4509  154.8343  148.7980 H       1  UNL1111     0.1629
     34 H         118.4074  153.2893  148.9132 H       1  UNL1111     0.0496
     35 H         119.6715  152.2241  148.3209 H       1  UNL1111     0.0496
     36 H         117.9690  154.2765  143.7318 H       1  UNL1111     0.0566
     37 H         117.5171  152.5897  144.0313 H       1  UNL1111     0.0566
     38 H         118.2543  151.2949  146.6149 H       1  UNL1111     0.0758
     39 H         117.2832  151.3865  148.0725 H       1  UNL1111     0.0758
     40 H         117.7323  156.6932  145.4811 H       1  UNL1111     0.0831
     41 H         119.8714  157.7826  145.9084 H       1  UNL1111     0.1144
     42 H         119.9460  152.3721  142.7352 H       1  UNL1111     0.0938
     43 H         122.3679  152.1108  143.2082 H       1  UNL1111     0.1157
     44 H         113.8355  150.3452  145.6761 H       1  UNL1111     0.1165
     45 H         113.1964  151.2910  147.0583 H       1  UNL1111     0.1165
     46 H         114.6046  148.5776  147.2631 H       1  UNL1111     0.0428
     47 H         112.8502  148.8411  147.4113 H       1  UNL1111     0.0428
     48 H         113.9764  149.5057  148.6193 H       1  UNL1111     0.0428
     49 H         125.1809  150.8323  148.3166 H       1  UNL1111     0.1185
     50 H         126.7688  151.4585  147.8826 H       1  UNL1111     0.1185
     51 H         125.3170  149.2362  146.3476 H       1  UNL1111     0.0430
     52 H         126.6865  149.0083  147.4570 H       1  UNL1111     0.0430
     53 H         126.8915  149.9004  145.9306 H       1  UNL1111     0.0430
@<TRIPOS>BOND
     1     1    12    1
     2     1    19    1
     3     2    20    2
     4     3    23    1
     5     3    27    1
     6     4    24    1
     7     4    26    1
     8     5    24    2
     9     6    27    1
    10     6    29    1
    11     7    27    2
    12     8    11    1
    13     8    16    1
    14     8    24   am
    15     9    10    1
    16     9    12    1
    17     9    13    1
    18     9    14    1
    19    10    11    1
    20    10    18    1
    21    11    15    1
    22    12    20    1
    23    13    16    1
    24    14    17   ar
    25    14    19   ar
    26    15    17    1
    27    17    22   ar
    28    18    21    2
    29    19    23   ar
    30    20    21    1
    31    22    25   ar
    32    23    25   ar
    33    26    28    1
    34    29    30    1
    35    10    31    1
    36    11    32    1
    37    12    33    1
    38    13    34    1
    39    13    35    1
    40    15    36    1
    41    15    37    1
    42    16    38    1
    43    16    39    1
    44    18    40    1
    45    21    41    1
    46    22    42    1
    47    25    43    1
    48    26    44    1
    49    26    45    1
    50    28    46    1
    51    28    47    1
    52    28    48    1
    53    29    49    1
    54    29    50    1
    55    30    51    1
    56    30    52    1
    57    30    53    1
@<TRIPOS>MOLECULE
634730
 54 59 0 0 0
SMALL
GASTEIGER

@<TRIPOS>ATOM
      1 F         125.8814  153.9675  148.5908 F       1  UNL111     -0.1897
      2 F         127.1584  154.0198  146.8322 F       1  UNL111     -0.1897
      3 F         126.7739  152.1311  147.8420 F       1  UNL111     -0.1897
      4 O         117.0619  151.0128  145.0906 O.3     1  UNL111     -0.5570
      5 O         115.5426  149.8086  147.8747 O.3     1  UNL111     -0.4349
      6 O         121.5618  152.4982  144.2268 O.3     1  UNL111     -0.5305
      7 N         116.0283  155.8479  146.6151 N.4     1  UNL111      0.4275
      8 C         116.4174  152.9811  146.3269 C.3     1  UNL111      0.0507
      9 C         116.2908  153.6278  147.7117 C.3     1  UNL111     -0.0028
     10 C         116.9200  155.0503  147.5985 C.3     1  UNL111     -0.0204
     11 C         116.2168  151.4553  146.2203 C.3     1  UNL111      0.0866
     12 C         115.5483  153.7634  145.3170 C.3     1  UNL111     -0.0261
     13 C         117.8356  153.0141  145.8690 C.ar    1  UNL111      0.0126
     14 C         118.4226  155.0467  147.1718 C.3     1  UNL111     -0.0192
     15 C         115.9197  155.2437  145.2323 C.3     1  UNL111     -0.0364
     16 C         118.7767  153.9769  146.1768 C.ar    1  UNL111     -0.0315
     17 C         116.6300  150.6463  147.4838 C.3     1  UNL111      0.0601
     18 C         116.8506  152.7808  148.8180 C.2     1  UNL111     -0.0869
     19 C         118.1159  151.8919  145.1156 C.ar    1  UNL111      0.0671
     20 C         116.9793  151.4512  148.7024 C.2     1  UNL111     -0.0672
     21 C         120.0434  153.8168  145.6153 C.ar    1  UNL111     -0.0136
     22 C         116.3471  157.3194  146.5589 C.3     1  UNL111     -0.0442
     23 C         119.3499  151.7176  144.5394 C.ar    1  UNL111      0.0309
     24 C         120.3248  152.6878  144.8083 C.ar    1  UNL111      0.0715
     25 C         122.6618  152.6670  145.0372 C.ar    1  UNL111      0.0555
     26 C         123.7029  153.4521  144.5445 C.ar    1  UNL111     -0.0193
     27 C         122.7791  152.0412  146.2803 C.ar    1  UNL111     -0.0193
     28 C         124.8468  153.6576  145.3192 C.ar    1  UNL111     -0.0255
     29 C         123.9225  152.2474  147.0548 C.ar    1  UNL111     -0.0255
     30 C         124.9659  153.0631  146.5857 C.ar    1  UNL111      0.0789
     31 C         126.1858  153.2927  147.4471 C.3     1  UNL111      0.3653
     32 H         115.5448  149.0401  147.2755 H       1  UNL111      0.2424
     33 H         115.0797  155.8091  147.0141 H       1  UNL111      0.1328
     34 H         115.2250  153.7471  147.9572 H       1  UNL111      0.0719
     35 H         116.8204  155.5785  148.5550 H       1  UNL111      0.0854
     36 H         115.1813  151.2174  145.9463 H       1  UNL111      0.1412
     37 H         114.4946  153.6767  145.6140 H       1  UNL111      0.0544
     38 H         115.6161  153.3315  144.3101 H       1  UNL111      0.0544
     39 H         119.0193  154.8527  148.0729 H       1  UNL111      0.0618
     40 H         118.7342  156.0238  146.7918 H       1  UNL111      0.0618
     41 H         116.8712  155.4079  144.7167 H       1  UNL111      0.0738
     42 H         115.1396  155.7989  144.6999 H       1  UNL111      0.0738
     43 H         117.4792  149.9891  147.2596 H       1  UNL111      0.1221
     44 H         117.0914  153.2459  149.7727 H       1  UNL111      0.0812
     45 H         117.3425  150.8775  149.5545 H       1  UNL111      0.0909
     46 H         120.8278  154.5439  145.8152 H       1  UNL111      0.1142
     47 H         117.2804  157.4649  146.0110 H       1  UNL111      0.0667
     48 H         116.4245  157.6919  147.5832 H       1  UNL111      0.0667
     49 H         115.5217  157.8180  146.0436 H       1  UNL111      0.0667
     50 H         119.5762  150.8448  143.9372 H       1  UNL111      0.1347
     51 H         123.6238  153.9084  143.5609 H       1  UNL111      0.1120
     52 H         121.9921  151.3893  146.6497 H       1  UNL111      0.1120
     53 H         125.6497  154.2812  144.9271 H       1  UNL111      0.1011
     54 H         124.0051  151.7625  148.0271 H       1  UNL111      0.1011
@<TRIPOS>UNITY_ATOM_ATTR
7 1
charge 1
@<TRIPOS>BOND
     1     1    31    1
     2     2    31    1
     3     3    31    1
     4     4    11    1
     5     4    19    1
     6     5    17    1
     7     6    24    1
     8     6    25    1
     9     7    10    1
    10     7    15    1
    11     7    22    1
    12     8     9    1
    13     8    11    1
    14     8    12    1
    15     8    13    1
    16     9    10    1
    17     9    18    1
    18    10    14    1
    19    11    17    1
    20    12    15    1
    21    13    16   ar
    22    13    19   ar
    23    14    16    1
    24    16    21   ar
    25    17    20    1
    26    18    20    2
    27    19    23   ar
    28    21    24   ar
    29    23    24   ar
    30    25    26   ar
    31    25    27   ar
    32    26    28   ar
    33    27    29   ar
    34    28    30   ar
    35    29    30   ar
    36    30    31    1
    37     5    32    1
    38     7    33    1
    39     9    34    1
    40    10    35    1
    41    11    36    1
    42    12    37    1
    43    12    38    1
    44    14    39    1
    45    14    40    1
    46    15    41    1
    47    15    42    1
    48    17    43    1
    49    18    44    1
    50    20    45    1
    51    21    46    1
    52    22    47    1
    53    22    48    1
    54    22    49    1
    55    23    50    1
    56    26    51    1
    57    27    52    1
    58    28    53    1
    59    29    54    1
@<TRIPOS>MOLECULE
9849121
 62 67 0 0 0
SMALL
GASTEIGER

@<TRIPOS>ATOM
      1 O         119.8541  153.6317  147.3976 O.3     1  UNL111     -0.5434
      2 O         118.4561  153.1030  145.2335 O.3     1  UNL111     -0.3938
      3 O         116.7277  151.6524  145.9472 O.3     1  UNL111     -0.3950
      4 O         119.8351  156.5330  147.5910 O.3     1  UNL111     -0.5485
      5 O         114.9449  153.1395  144.0675 O.3     1  UNL111     -0.4257
      6 O         114.7061  155.2853  145.7103 O.3     1  UNL111     -0.4319
      7 O         115.1219  154.0767  148.2380 O.3     1  UNL111     -0.4330
      8 O         117.1663  150.3942  148.5028 O.3     1  UNL111     -0.4476
      9 N         124.5807  151.5299  146.8093 N.4     1  UNL111      0.4275
     10 C         121.7601  152.3000  146.7089 C.3     1  UNL111      0.0537
     11 C         122.4151  151.6139  145.5045 C.3     1  UNL111     -0.0025
     12 C         120.2138  152.3421  146.7781 C.3     1  UNL111      0.0935
     13 C         123.9147  152.0399  145.5073 C.3     1  UNL111     -0.0206
     14 C         122.3848  151.7717  148.0172 C.3     1  UNL111     -0.0258
     15 C         121.9923  153.7725  146.6096 C.ar    1  UNL111      0.0233
     16 C         124.1413  153.5795  145.3716 C.3     1  UNL111     -0.0213
     17 C         123.8955  151.9765  148.0840 C.3     1  UNL111     -0.0364
     18 C         119.4849  152.1256  145.4120 C.3     1  UNL111      0.0767
     19 C         123.0979  154.4078  146.0683 C.ar    1  UNL111     -0.0425
     20 C         121.6925  151.9120  144.2165 C.2     1  UNL111     -0.0864
     21 C         120.8930  154.4590  147.0703 C.ar    1  UNL111      0.1050
     22 C         120.3738  152.1591  144.1923 C.2     1  UNL111     -0.0634
     23 C         124.8693  150.0494  146.7939 C.3     1  UNL111     -0.0442
     24 C         123.1124  155.8049  146.1055 C.ar    1  UNL111     -0.0573
     25 C         120.8995  155.8320  147.1224 C.ar    1  UNL111      0.0917
     26 C         122.0219  156.5130  146.6524 C.ar    1  UNL111     -0.0140
     27 C         117.1877  152.5332  144.9218 C.3     1  UNL111      0.1169
     28 C         116.1644  153.6548  144.6385 C.3     1  UNL111      0.0880
     29 C         115.7924  154.3706  145.9384 C.3     1  UNL111      0.0752
     30 C         116.4521  152.3129  147.1959 C.3     1  UNL111      0.0746
     31 C         115.3597  153.3700  147.0167 C.3     1  UNL111      0.0716
     32 C         116.0464  151.2467  148.2201 C.3     1  UNL111      0.0355
     33 H         119.1468  155.8794  147.8193 H       1  UNL111      0.3393
     34 H         115.1744  152.6869  143.2359 H       1  UNL111      0.2441
     35 H         114.1166  154.8317  145.0718 H       1  UNL111      0.2418
     36 H         114.5984  154.8650  147.9837 H       1  UNL111      0.2415
     37 H         116.8291  149.7089  149.1069 H       1  UNL111      0.2361
     38 H         125.5119  151.9683  146.8379 H       1  UNL111      0.1328
     39 H         122.3572  150.5243  145.6254 H       1  UNL111      0.0720
     40 H         119.8457  151.5709  147.4673 H       1  UNL111      0.1422
     41 H         124.4607  151.5457  144.6942 H       1  UNL111      0.0854
     42 H         122.1596  150.7017  148.1138 H       1  UNL111      0.0544
     43 H         121.9345  152.2557  148.8938 H       1  UNL111      0.0544
     44 H         124.0973  153.8321  144.3042 H       1  UNL111      0.0615
     45 H         125.1395  153.8557  145.7304 H       1  UNL111      0.0615
     46 H         124.1592  153.0286  148.2325 H       1  UNL111      0.0738
     47 H         124.3363  151.4158  148.9156 H       1  UNL111      0.0738
     48 H         119.0611  151.1118  145.4327 H       1  UNL111      0.1271
     49 H         122.2411  151.8917  143.2764 H       1  UNL111      0.0812
     50 H         119.8857  152.3400  143.2366 H       1  UNL111      0.0915
     51 H         123.9291  149.4976  146.8507 H       1  UNL111      0.0667
     52 H         125.5022  149.8228  147.6562 H       1  UNL111      0.0667
     53 H         125.4080  149.8171  145.8719 H       1  UNL111      0.0667
     54 H         123.9455  156.3679  145.6886 H       1  UNL111      0.0939
     55 H         122.0340  157.6007  146.6722 H       1  UNL111      0.1139
     56 H         117.2888  151.9283  144.0125 H       1  UNL111      0.1705
     57 H         116.5674  154.3831  143.9256 H       1  UNL111      0.1332
     58 H         116.6346  154.9696  146.3048 H       1  UNL111      0.1243
     59 H         117.3730  152.7796  147.5620 H       1  UNL111      0.1238
     60 H         114.4119  152.8994  146.7277 H       1  UNL111      0.1228
     61 H         115.7268  151.6967  149.1646 H       1  UNL111      0.1016
     62 H         115.2430  150.6160  147.8252 H       1  UNL111      0.1016
@<TRIPOS>UNITY_ATOM_ATTR
9 1
charge 1
@<TRIPOS>BOND
     1     1    12    1
     2     1    21    1
     3     2    18    1
     4     2    27    1
     5     3    27    1
     6     3    30    1
     7     4    25    1
     8     5    28    1
     9     6    29    1
    10     7    31    1
    11     8    32    1
    12     9    13    1
    13     9    17    1
    14     9    23    1
    15    10    11    1
    16    10    12    1
    17    10    14    1
    18    10    15    1
    19    11    13    1
    20    11    20    1
    21    12    18    1
    22    13    16    1
    23    14    17    1
    24    15    19   ar
    25    15    21   ar
    26    16    19    1
    27    18    22    1
    28    19    24   ar
    29    20    22    2
    30    21    25   ar
    31    24    26   ar
    32    25    26   ar
    33    27    28    1
    34    28    29    1
    35    29    31    1
    36    30    31    1
    37    30    32    1
    38     4    33    1
    39     5    34    1
    40     6    35    1
    41     7    36    1
    42     8    37    1
    43     9    38    1
    44    11    39    1
    45    12    40    1
    46    13    41    1
    47    14    42    1
    48    14    43    1
    49    16    44    1
    50    16    45    1
    51    17    46    1
    52    17    47    1
    53    18    48    1
    54    20    49    1
    55    22    50    1
    56    23    51    1
    57    23    52    1
    58    23    53    1
    59    24    54    1
    60    26    55    1
    61    27    56    1
    62    28    57    1
    63    29    58    1
    64    30    59    1
    65    31    60    1
    66    32    61    1
    67    32    62    1
@<TRIPOS>MOLECULE
124037290
 54 58 0 0 0
SMALL
GASTEIGER

@<TRIPOS>ATOM
      1 O         120.8148  153.2335  144.5914 O.3     1  UNL111     -0.5435
      2 O         116.9927  150.9900  145.9765 O.3     1  UNL111     -0.4361
      3 O         121.6294  151.6442  146.6587 O.3     1  UNL111     -0.4411
      4 O         122.5447  155.4622  145.3970 O.3     1  UNL111     -0.5485
      5 O         124.2339  153.0509  146.3913 O.3     1  UNL111     -0.4624
      6 N         116.0712  153.3278  146.6161 N.4     1  UNL111      0.4300
      7 C         118.7254  152.6871  145.6670 C.3     1  UNL111      0.0718
      8 C         117.9926  151.7887  146.6734 C.3     1  UNL111      0.0452
      9 C         119.9412  152.0960  144.9246 C.3     1  UNL111      0.0926
     10 C         117.1503  152.7517  147.5780 C.3     1  UNL111      0.0007
     11 C         117.7022  153.3529  144.7082 C.3     1  UNL111     -0.0197
     12 C         119.4560  153.7877  146.3502 C.ar    1  UNL111      0.0304
     13 C         118.9126  150.8376  147.4439 C.3     1  UNL111     -0.0143
     14 C         120.7575  151.0200  145.7088 C.3     1  UNL111      0.0503
     15 C         117.9459  153.8635  148.3155 C.3     1  UNL111     -0.0148
     16 C         119.8509  150.0707  146.4950 C.3     1  UNL111     -0.0148
     17 C         116.6116  154.1297  145.4559 C.3     1  UNL111     -0.0337
     18 C         119.0964  154.4171  147.5261 C.ar    1  UNL111     -0.0397
     19 C         120.5962  154.1039  145.6380 C.ar    1  UNL111      0.1065
     20 C         114.9170  153.9887  147.2992 C.3     1  UNL111     -0.0427
     21 C         119.8991  155.4812  147.9431 C.ar    1  UNL111     -0.0569
     22 C         121.3942  155.1453  146.0440 C.ar    1  UNL111      0.0919
     23 C         121.0324  155.8566  147.1893 C.ar    1  UNL111     -0.0140
     24 C         122.9333  151.0515  146.7239 C.3     1  UNL111      0.0278
     25 C         123.9003  152.0483  147.3610 C.3     1  UNL111      0.0230
     26 C         125.0893  154.0435  146.9474 C.3     1  UNL111     -0.0027
     27 H         117.4036  150.1820  145.6150 H       1  UNL111      0.2435
     28 H         122.8134  154.6518  144.9189 H       1  UNL111      0.3393
     29 H         115.7021  152.4587  146.1854 H       1  UNL111      0.1349
     30 H         119.6067  151.6435  143.9822 H       1  UNL111      0.1416
     31 H         116.5745  152.1645  148.3043 H       1  UNL111      0.0967
     32 H         117.2311  152.5831  144.0832 H       1  UNL111      0.0561
     33 H         118.1923  154.0390  144.0048 H       1  UNL111      0.0561
     34 H         118.3097  150.1054  147.9950 H       1  UNL111      0.0524
     35 H         119.5085  151.3823  148.1849 H       1  UNL111      0.0524
     36 H         121.3469  150.4553  144.9761 H       1  UNL111      0.1139
     37 H         118.3660  153.4213  149.2280 H       1  UNL111      0.0633
     38 H         117.2856  154.6780  148.6292 H       1  UNL111      0.0633
     39 H         119.2799  149.4454  145.8011 H       1  UNL111      0.0503
     40 H         120.4629  149.3918  147.1011 H       1  UNL111      0.0503
     41 H         116.9727  155.0850  145.8495 H       1  UNL111      0.0743
     42 H         115.7706  154.3326  144.7837 H       1  UNL111      0.0743
     43 H         115.2450  154.9483  147.7045 H       1  UNL111      0.0670
     44 H         114.5608  153.3268  148.0924 H       1  UNL111      0.0670
     45 H         114.1269  154.1361  146.5581 H       1  UNL111      0.0670
     46 H         119.6812  156.0194  148.8635 H       1  UNL111      0.0939
     47 H         121.6624  156.6763  147.5281 H       1  UNL111      0.1139
     48 H         123.2888  150.7965  145.7192 H       1  UNL111      0.1002
     49 H         122.8648  150.1454  147.3335 H       1  UNL111      0.1002
     50 H         123.4391  152.5252  148.2331 H       1  UNL111      0.0991
     51 H         124.8186  151.5314  147.6597 H       1  UNL111      0.0991
     52 H         125.3328  154.7664  146.1643 H       1  UNL111      0.0817
     53 H         126.0186  153.5911  147.3065 H       1  UNL111      0.0817
     54 H         124.5840  154.5684  147.7638 H       1  UNL111      0.0817
@<TRIPOS>UNITY_ATOM_ATTR
6 1
charge 1
@<TRIPOS>BOND
     1     1     9    1
     2     1    19    1
     3     2     8    1
     4     3    14    1
     5     3    24    1
     6     4    22    1
     7     5    25    1
     8     5    26    1
     9     6    10    1
    10     6    17    1
    11     6    20    1
    12     7     8    1
    13     7     9    1
    14     7    11    1
    15     7    12    1
    16     8    10    1
    17     8    13    1
    18     9    14    1
    19    10    15    1
    20    11    17    1
    21    12    18   ar
    22    12    19   ar
    23    13    16    1
    24    14    16    1
    25    15    18    1
    26    18    21   ar
    27    19    22   ar
    28    21    23   ar
    29    22    23   ar
    30    24    25    1
    31     2    27    1
    32     4    28    1
    33     6    29    1
    34     9    30    1
    35    10    31    1
    36    11    32    1
    37    11    33    1
    38    13    34    1
    39    13    35    1
    40    14    36    1
    41    15    37    1
    42    15    38    1
    43    16    39    1
    44    16    40    1
    45    17    41    1
    46    17    42    1
    47    20    43    1
    48    20    44    1
    49    20    45    1
    50    21    46    1
    51    23    47    1
    52    24    48    1
    53    24    49    1
    54    25    50    1
    55    25    51    1
    56    26    52    1
    57    26    53    1
    58    26    54    1
@<TRIPOS>MOLECULE
129780009
 58 63 0 0 0
SMALL
GASTEIGER

@<TRIPOS>ATOM
      1 O         121.0677  151.4847  147.7482 O.2     1  UNL111     -0.5564
      2 O         121.3392  150.0175  145.6039 O.3     1  UNL111     -0.4349
      3 O         119.0209  151.6639  145.5303 O.3     1  UNL111     -0.4267
      4 O         112.2440  154.7336  146.6517 O.co2   1  UNL111     -0.4640
      5 O         112.1485  152.8215  145.5791 O.2     1  UNL111     -0.0997
      6 N         124.5468  155.1765  146.7655 N.4     1  UNL111      0.4274
      7 N         112.7444  153.6709  146.2562 N.pl3   1  UNL111     -0.0084
      8 C         122.9931  152.7316  147.0437 C.3     1  UNL111      0.0502
      9 C         124.1919  152.8096  146.0865 C.3     1  UNL111     -0.0030
     10 C         122.4841  151.3133  147.3946 C.3     1  UNL111      0.0865
     11 C         124.2351  154.2674  145.5519 C.3     1  UNL111     -0.0209
     12 C         121.7311  153.2538  146.4547 C.2     1  UNL111      0.0089
     13 C         123.3293  153.5919  148.2855 C.3     1  UNL111     -0.0263
     14 C         122.9399  154.6819  144.7937 C.3     1  UNL111     -0.0233
     15 C         121.6448  154.2377  145.4245 C.2     1  UNL111     -0.0532
     16 C         120.7003  152.5579  146.9232 C.2     1  UNL111      0.0630
     17 C         123.5784  155.0594  147.9250 C.3     1  UNL111     -0.0364
     18 C         122.5936  150.2542  146.2458 C.3     1  UNL111      0.0600
     19 C         124.2182  151.7502  145.0269 C.2     1  UNL111     -0.0869
     20 C         119.2809  152.7427  146.4457 C.3     1  UNL111      0.0808
     21 C         123.5213  150.6111  145.1257 C.2     1  UNL111     -0.0672
     22 C         119.1424  154.1038  145.6760 C.3     1  UNL111      0.0014
     23 C         120.4219  154.6512  145.0500 C.2     1  UNL111     -0.0851
     24 C         124.7987  156.6154  146.3946 C.3     1  UNL111     -0.0442
     25 C         118.2755  152.6393  147.6216 C.3     1  UNL111      0.0094
     26 C         116.8244  152.9109  147.2680 C.3     1  UNL111     -0.0584
     27 C         116.1809  154.0676  147.7338 C.3     1  UNL111     -0.0505
     28 C         116.1032  152.0007  146.4793 C.3     1  UNL111     -0.0505
     29 C         114.8456  154.3192  147.4058 C.3     1  UNL111      0.0235
     30 C         114.7688  152.2430  146.1451 C.3     1  UNL111      0.0235
     31 C         114.1443  153.4053  146.6090 C.3     1  UNL111      0.1817
     32 H         120.6821  149.8857  146.3164 H       1  UNL111      0.2424
     33 H         119.8422  151.4713  145.0369 H       1  UNL111      0.2456
     34 H         125.4531  154.8458  147.1249 H       1  UNL111      0.1328
     35 H         125.1159  152.6375  146.6595 H       1  UNL111      0.0719
     36 H         123.0103  150.9318  148.2784 H       1  UNL111      0.1409
     37 H         125.0958  154.3906  144.8824 H       1  UNL111      0.0854
     38 H         124.2228  153.1840  148.7767 H       1  UNL111      0.0544
     39 H         122.5288  153.5463  149.0353 H       1  UNL111      0.0544
     40 H         122.9873  154.2152  143.7998 H       1  UNL111      0.0612
     41 H         122.9216  155.7621  144.6160 H       1  UNL111      0.0612
     42 H         122.6583  155.5839  147.6491 H       1  UNL111      0.0738
     43 H         124.0317  155.5845  148.7730 H       1  UNL111      0.0738
     44 H         122.9121  149.3004  146.6816 H       1  UNL111      0.1220
     45 H         124.8734  151.8821  144.1665 H       1  UNL111      0.0812
     46 H         123.6017  149.8699  144.3304 H       1  UNL111      0.0909
     47 H         118.7794  154.8874  146.3531 H       1  UNL111      0.0618
     48 H         118.4023  153.9900  144.8740 H       1  UNL111      0.0618
     49 H         120.2970  155.3895  144.2609 H       1  UNL111      0.0807
     50 H         123.8504  157.0894  146.1328 H       1  UNL111      0.0667
     51 H         125.4991  156.6344  145.5560 H       1  UNL111      0.0667
     52 H         125.2449  157.1084  147.2626 H       1  UNL111      0.0667
     53 H         118.5803  153.3255  148.4234 H       1  UNL111      0.0652
     54 H         118.3137  151.6307  148.0568 H       1  UNL111      0.0652
     55 H         116.7113  154.7830  148.3590 H       1  UNL111      0.0957
     56 H         116.5810  151.0919  146.1145 H       1  UNL111      0.0957
     57 H         114.3681  155.2233  147.7787 H       1  UNL111      0.1308
     58 H         114.2381  151.5209  145.5277 H       1  UNL111      0.1308
@<TRIPOS>UNITY_ATOM_ATTR
4 1
charge -1
6 1
charge 1
7 1
charge 1
@<TRIPOS>BOND
     1     1    10    1
     2     1    16    1
     3     2    18    1
     4     3    20    1
     5     4     7    1
     6     5     7    2
     7     6    11    1
     8     6    17    1
     9     6    24    1
    10     7    31    1
    11     8     9    1
    12     8    10    1
    13     8    12    1
    14     8    13    1
    15     9    11    1
    16     9    19    1
    17    10    18    1
    18    11    14    1
    19    12    15    1
    20    12    16    2
    21    13    17    1
    22    14    15    1
    23    15    23    2
    24    16    20    1
    25    18    21    1
    26    19    21    2
    27    20    22    1
    28    20    25    1
    29    22    23    1
    30    25    26    1
    31    26    27   ar
    32    26    28   ar
    33    27    29   ar
    34    28    30   ar
    35    29    31   ar
    36    30    31   ar
    37     2    32    1
    38     3    33    1
    39     6    34    1
    40     9    35    1
    41    10    36    1
    42    11    37    1
    43    13    38    1
    44    13    39    1
    45    14    40    1
    46    14    41    1
    47    17    42    1
    48    17    43    1
    49    18    44    1
    50    19    45    1
    51    21    46    1
    52    22    47    1
    53    22    48    1
    54    23    49    1
    55    24    50    1
    56    24    51    1
    57    24    52    1
    58    25    53    1
    59    25    54    1
    60    27    55    1
    61    28    56    1
    62    29    57    1
    63    30    58    1
@<TRIPOS>MOLECULE
163285537
 25 29 0 0 0
SMALL
GASTEIGER

@<TRIPOS>ATOM
      1 O         122.2342  153.5733  147.1674 O.2     1  UNL1111    -0.5343
      2 O         115.8587  154.0874  146.2408 O.co2   1  UNL1111    -0.7403
      3 O         121.5534  156.7348  147.0500 O.3     1  UNL1111    -0.2744
      4 O         123.8257  151.0126  146.7836 O.co2   1  UNL1111    -0.7919
      5 N         116.6978  153.0416  146.4784 N.3     1  UNL1111     0.4194
      6 C         119.8387  153.6387  146.9051 C.3     1  UNL1111     0.1117
      7 C         118.8927  154.0581  145.7027 C.3     1  UNL1111     0.0667
      8 C         117.8131  153.0404  145.4388 C.3     1  UNL1111     0.0243
      9 C         121.1060  154.4555  147.1416 C.3     1  UNL1111     0.1851
     10 C         118.8871  153.5475  148.0367 C.3     1  UNL1111     0.0711
     11 C         120.4411  152.3086  146.5477 C.2     1  UNL1111     0.0265
     12 C         117.4028  153.2810  147.7618 C.3     1  UNL1111     0.0213
     13 C         118.5321  151.7760  145.3165 C.3     1  UNL1111     0.0603
     14 C         119.7915  151.3171  145.8173 C.2     1  UNL1111    -0.0034
     15 C         121.2465  155.7213  146.3786 C.3     1  UNL1111     0.2108
     16 C         119.2873  155.2249  145.0188 C.2     1  UNL1111    -0.0046
     17 C         121.8061  152.2916  146.7968 C.2     1  UNL1111     0.0497
     18 C         120.2503  155.8554  145.3556 C.2     1  UNL1111     0.0424
     19 C         115.9410  151.7582  146.5401 C.3     1  UNL1111    -0.0502
     20 C         120.4974  150.1918  145.4715 C.2     1  UNL1111    -0.0116
     21 C         122.5845  151.1558  146.5240 C.2     1  UNL1111    -0.0514
     22 C         121.8466  150.1197  145.8804 C.2     1  UNL1111    -0.0254
     23 H         115.5325  151.5676  145.5434 H       1  UNL1111     0.0660
     24 H         115.1282  151.8962  147.2603 H       1  UNL1111     0.0660
     25 H         116.6022  150.9517  146.8687 H       1  UNL1111     0.0660
@<TRIPOS>UNITY_ATOM_ATTR
2 1
charge -1
4 1
charge -1
5 1
charge 1
@<TRIPOS>BOND
     1     1     9    1
     2     1    17    1
     3     2     5    1
     4     3    15    1
     5     4    21    1
     6     5     8    1
     7     5    12    1
     8     5    19    1
     9     6     7    1
    10     6     9    1
    11     6    10    1
    12     6    11    1
    13     7     8    1
    14     7    16    1
    15     8    13    1
    16     9    15    1
    17    10    12    1
    18    11    14    2
    19    11    17    1
    20    13    14    1
    21    14    20    1
    22    15    18    1
    23    16    18    2
    24    17    21    2
    25    20    22    2
    26    21    22    1
    27    19    23    1
    28    19    24    1
    29    19    25    1
@<TRIPOS>MOLECULE
5491901
 42 47 0 0 0
SMALL
GASTEIGER

@<TRIPOS>ATOM
      1 O         121.0909  151.0977  144.5829 O.3     1  UNL111     -0.4228
      2 O         118.3472  151.7142  147.4845 O.3     1  UNL111     -0.5435
      3 O         119.9315  149.1390  146.8279 O.3     1  UNL111     -0.4302
      4 O         115.6049  152.7846  147.0027 O.3     1  UNL111     -0.5485
      5 N         121.8426  155.3633  146.9769 N.4     1  UNL111      0.4278
      6 C         120.3144  152.8814  146.8901 C.3     1  UNL111      0.0578
      7 C         121.6038  153.0529  146.1129 C.3     1  UNL111      0.0164
      8 C         122.0303  151.9088  145.2548 C.3     1  UNL111      0.0597
      9 C         121.6285  150.5241  145.8010 C.3     1  UNL111      0.0743
     10 C         119.6029  151.5301  146.7768 C.3     1  UNL111      0.0945
     11 C         121.6546  154.5160  145.6526 C.3     1  UNL111     -0.0163
     12 C         120.6014  150.3861  146.9492 C.3     1  UNL111      0.0778
     13 C         120.5984  153.5016  148.2797 C.3     1  UNL111     -0.0254
     14 C         119.1104  153.5804  146.3832 C.ar    1  UNL111      0.0236
     15 C         120.3890  155.0571  144.8977 C.3     1  UNL111     -0.0209
     16 C         120.9147  155.0101  148.1531 C.3     1  UNL111     -0.0364
     17 C         119.0823  154.6400  145.5109 C.ar    1  UNL111     -0.0426
     18 C         117.9816  152.9179  146.8671 C.ar    1  UNL111      0.1049
     19 C         123.2866  155.4740  147.4036 C.3     1  UNL111     -0.0442
     20 C         117.8156  155.1302  145.1980 C.ar    1  UNL111     -0.0573
     21 C         116.7353  153.3980  146.5755 C.ar    1  UNL111      0.0917
     22 C         116.6519  154.5276  145.7515 C.ar    1  UNL111     -0.0140
     23 H         120.5854  148.4224  146.8903 H       1  UNL111      0.2427
     24 H         115.8776  151.9601  147.4486 H       1  UNL111      0.3393
     25 H         121.5831  156.3276  146.7236 H       1  UNL111      0.1327
     26 H         122.4215  152.9627  146.8435 H       1  UNL111      0.0771
     27 H         123.0155  152.0206  144.8186 H       1  UNL111      0.1159
     28 H         122.3202  149.6978  145.7146 H       1  UNL111      0.1244
     29 H         119.2304  151.3327  145.7505 H       1  UNL111      0.1418
     30 H         122.5411  154.7193  145.0418 H       1  UNL111      0.0857
     31 H         121.0928  150.4213  147.9265 H       1  UNL111      0.1269
     32 H         121.4407  152.9869  148.7600 H       1  UNL111      0.0543
     33 H         119.7558  153.3841  148.9731 H       1  UNL111      0.0543
     34 H         120.4141  154.6652  143.8733 H       1  UNL111      0.0615
     35 H         120.4334  156.1507  144.8346 H       1  UNL111      0.0615
     36 H         120.0008  155.5931  147.9965 H       1  UNL111      0.0738
     37 H         121.3790  155.3886  149.0704 H       1  UNL111      0.0738
     38 H         123.6268  154.5049  147.7736 H       1  UNL111      0.0667
     39 H         123.3474  156.2306  148.1904 H       1  UNL111      0.0667
     40 H         123.8732  155.7956  146.5395 H       1  UNL111      0.0667
     41 H         117.6914  155.9577  144.5013 H       1  UNL111      0.0939
     42 H         115.6697  154.9140  145.4832 H       1  UNL111      0.1139
@<TRIPOS>UNITY_ATOM_ATTR
5 1
charge 1
@<TRIPOS>BOND
     1     1     8    1
     2     1     9    1
     3     2    10    1
     4     2    18    1
     5     3    12    1
     6     4    21    1
     7     5    11    1
     8     5    16    1
     9     5    19    1
    10     6     7    1
    11     6    10    1
    12     6    13    1
    13     6    14    1
    14     7     8    1
    15     7    11    1
    16     8     9    1
    17     9    12    1
    18    10    12    1
    19    11    15    1
    20    13    16    1
    21    14    17   ar
    22    14    18   ar
    23    15    17    1
    24    17    20   ar
    25    18    21   ar
    26    20    22   ar
    27    21    22   ar
    28     3    23    1
    29     4    24    1
    30     5    25    1
    31     7    26    1
    32     8    27    1
    33     9    28    1
    34    10    29    1
    35    11    30    1
    36    12    31    1
    37    13    32    1
    38    13    33    1
    39    15    34    1
    40    15    35    1
    41    16    36    1
    42    16    37    1
    43    19    38    1
    44    19    39    1
    45    19    40    1
    46    20    41    1
    47    22    42    1
@<TRIPOS>MOLECULE
67625510
 59 63 0 0 0
SMALL
GASTEIGER

@<TRIPOS>ATOM
      1 O         119.5527  152.1051  147.9456 O.2     1  UNL111     -0.5469
      2 O         120.7869  150.5347  146.3058 O.3     1  UNL111     -0.4086
      3 O         116.7222  152.1949  148.5798 O.3     1  UNL111     -0.4065
      4 O         123.6055  152.6518  147.0772 O.2     1  UNL111     -0.4044
      5 O         116.9281  150.0315  147.0415 O.2     1  UNL111     -0.4039
      6 N         120.7086  157.0086  146.5428 N.4     1  UNL111      0.4274
      7 C         120.4856  154.1496  147.0319 C.3     1  UNL111      0.0552
      8 C         121.2260  154.6874  145.7964 C.3     1  UNL111     -0.0016
      9 C         120.8143  152.7002  147.4756 C.3     1  UNL111      0.1090
     10 C         120.5110  156.0072  145.3849 C.3     1  UNL111     -0.0208
     11 C         119.0373  153.9725  146.7284 C.2     1  UNL111      0.0141
     12 C         120.6544  155.1478  148.2003 C.3     1  UNL111     -0.0255
     13 C         119.0110  155.8041  145.0180 C.3     1  UNL111     -0.0232
     14 C         121.4542  151.7878  146.3750 C.3     1  UNL111      0.1396
     15 C         118.2586  154.8132  145.8723 C.2     1  UNL111     -0.0521
     16 C         118.5825  152.8634  147.2955 C.2     1  UNL111      0.0856
     17 C         120.1518  156.5502  147.8714 C.3     1  UNL111     -0.0364
     18 C         121.3219  153.6641  144.6958 C.2     1  UNL111     -0.0814
     19 C         117.1491  152.4234  147.2318 C.3     1  UNL111      0.1507
     20 C         121.4211  152.3550  144.9750 C.2     1  UNL111     -0.0413
     21 C         116.9281  154.6212  145.8297 C.2     1  UNL111     -0.0812
     22 C         116.2270  153.5279  146.6289 C.3     1  UNL111      0.0198
     23 C         122.9546  151.6546  146.7418 C.2     1  UNL111      0.1284
     24 C         120.2807  158.4150  146.2145 C.3     1  UNL111     -0.0442
     25 C         117.0931  151.0974  146.4374 C.2     1  UNL111      0.1311
     26 C         123.5807  150.2750  146.6256 C.3     1  UNL111      0.0230
     27 C         117.2989  151.1488  144.9298 C.3     1  UNL111      0.0234
     28 C         125.0580  150.2761  146.9762 C.3     1  UNL111     -0.0483
     29 C         117.4398  149.7654  144.3185 C.3     1  UNL111     -0.0483
     30 H         120.3234  150.3926  147.1547 H       1  UNL111      0.2519
     31 H         116.8808  151.2424  148.7481 H       1  UNL111      0.2523
     32 H         121.7283  157.0766  146.6755 H       1  UNL111      0.1328
     33 H         122.2626  154.9370  146.0658 H       1  UNL111      0.0721
     34 H         121.4560  152.7164  148.3660 H       1  UNL111      0.1479
     35 H         121.0323  156.4565  144.5302 H       1  UNL111      0.0854
     36 H         121.7186  155.2050  148.4666 H       1  UNL111      0.0544
     37 H         120.1358  154.7936  149.1009 H       1  UNL111      0.0544
     38 H         118.9837  155.4198  143.9886 H       1  UNL111      0.0612
     39 H         118.4790  156.7604  144.9936 H       1  UNL111      0.0612
     40 H         119.0601  156.6057  147.8199 H       1  UNL111      0.0738
     41 H         120.4975  157.2629  148.6283 H       1  UNL111      0.0738
     42 H         121.3749  153.9887  143.6581 H       1  UNL111      0.0820
     43 H         121.5320  151.6417  144.1586 H       1  UNL111      0.0981
     44 H         116.2958  155.2327  145.1890 H       1  UNL111      0.0813
     45 H         115.6671  154.0265  147.4317 H       1  UNL111      0.0668
     46 H         115.4667  153.0689  145.9857 H       1  UNL111      0.0668
     47 H         119.1899  158.4637  146.1964 H       1  UNL111      0.0667
     48 H         120.7072  158.6848  145.2453 H       1  UNL111      0.0667
     49 H         120.6784  159.0733  146.9917 H       1  UNL111      0.0667
     50 H         123.4498  149.9211  145.5980 H       1  UNL111      0.0665
     51 H         123.0508  149.5993  147.3048 H       1  UNL111      0.0665
     52 H         118.2046  151.7223  144.7132 H       1  UNL111      0.0666
     53 H         116.4442  151.6563  144.4738 H       1  UNL111      0.0666
     54 H         125.6207  150.9346  146.3064 H       1  UNL111      0.0308
     55 H         125.4710  149.2664  146.8901 H       1  UNL111      0.0308
     56 H         125.2185  150.6248  148.0019 H       1  UNL111      0.0308
     57 H         118.2900  149.2289  144.7526 H       1  UNL111      0.0308
     58 H         117.5981  149.8411  143.2383 H       1  UNL111      0.0308
     59 H         116.5401  149.1654  144.4904 H       1  UNL111      0.0308
@<TRIPOS>UNITY_ATOM_ATTR
6 1
charge 1
@<TRIPOS>BOND
     1     1     9    1
     2     1    16    1
     3     2    14    1
     4     3    19    1
     5     4    23    2
     6     5    25    2
     7     6    10    1
     8     6    17    1
     9     6    24    1
    10     7     8    1
    11     7     9    1
    12     7    11    1
    13     7    12    1
    14     8    10    1
    15     8    18    1
    16     9    14    1
    17    10    13    1
    18    11    15    1
    19    11    16    2
    20    12    17    1
    21    13    15    1
    22    14    20    1
    23    14    23    1
    24    15    21    2
    25    16    19    1
    26    18    20    2
    27    19    22    1
    28    19    25    1
    29    21    22    1
    30    23    26    1
    31    25    27    1
    32    26    28    1
    33    27    29    1
    34     2    30    1
    35     3    31    1
    36     6    32    1
    37     8    33    1
    38     9    34    1
    39    10    35    1
    40    12    36    1
    41    12    37    1
    42    13    38    1
    43    13    39    1
    44    17    40    1
    45    17    41    1
    46    18    42    1
    47    20    43    1
    48    21    44    1
    49    22    45    1
    50    22    46    1
    51    24    47    1
    52    24    48    1
    53    24    49    1
    54    26    50    1
    55    26    51    1
    56    27    52    1
    57    27    53    1
    58    28    54    1
    59    28    55    1
    60    28    56    1
    61    29    57    1
    62    29    58    1
    63    29    59    1
@<TRIPOS>MOLECULE
129676797
 31 35 0 0 0
SMALL
GASTEIGER

@<TRIPOS>ATOM
      1 O         118.9468  151.7791  146.7110 O.2     1  UNL111     -0.5180
      2 O         121.1118  150.0834  145.9354 O.3     1  UNL111     -0.2647
      3 O         116.5639  152.2434  144.9533 O.3     1  UNL111     -0.2666
      4 O         122.5199  151.8431  148.7523 O.2     1  UNL111     -0.3925
      5 O         115.4707  153.7820  147.8898 O.2     1  UNL111     -0.4010
      6 N         122.3791  156.0807  146.3251 N.4     1  UNL111      0.4583
      7 C         120.4812  153.5834  146.7003 C.3     1  UNL111      0.1157
      8 C         121.4034  153.9866  145.4651 C.3     1  UNL111      0.0731
      9 C         120.3160  152.0980  146.8990 C.3     1  UNL111      0.1942
     10 C         121.4689  155.4691  145.3299 C.3     1  UNL111      0.0592
     11 C         119.1017  154.0595  146.4255 C.2     1  UNL111      0.0395
     12 C         121.0717  154.3045  147.8475 C.3     1  UNL111      0.0781
     13 C         120.0872  155.9234  145.3256 C.3     1  UNL111      0.0645
     14 C         121.5098  151.1367  146.6060 C.3     1  UNL111      0.2298
     15 C         118.8706  155.4086  145.8640 C.2     1  UNL111     -0.0059
     16 C         121.9685  155.5070  147.6234 C.3     1  UNL111      0.0622
     17 C         118.2626  153.0014  146.4193 C.2     1  UNL111      0.1147
     18 C         122.4143  153.0373  145.2035 C.2     1  UNL111     -0.0019
     19 C         116.7831  153.0614  145.9552 C.3     1  UNL111      0.2221
     20 C         122.3797  151.9425  145.6888 C.2     1  UNL111      0.0506
     21 C         117.6888  155.5451  145.3535 C.2     1  UNL111     -0.0101
     22 C         116.6382  154.4442  145.4159 C.3     1  UNL111      0.1260
     23 C         122.4436  157.5393  146.3274 C.3     1  UNL111      0.0984
     24 C         122.2493  150.9496  147.9487 C.2     1  UNL111      0.1830
     25 C         115.9269  152.8463  147.2117 C.2     1  UNL111      0.1487
     26 C         123.0005  149.7022  148.3896 C.3     1  UNL111      0.1588
     27 C         115.7860  151.4353  147.7465 C.3     1  UNL111      0.0240
     28 H         123.3262  155.7204  146.1398 H       1  UNL111      0.1735
     29 H         114.9155  151.3882  148.4077 H       1  UNL111      0.0621
     30 H         116.6808  151.1715  148.3158 H       1  UNL111      0.0621
     31 H         115.6295  150.7141  146.9424 H       1  UNL111      0.0621
@<TRIPOS>UNITY_ATOM_ATTR
6 1
charge 1
@<TRIPOS>BOND
     1     1     9    1
     2     1    17    1
     3     2    14    1
     4     3    19    1
     5     4    24    2
     6     5    25    2
     7     6    10    1
     8     6    16    1
     9     6    23    1
    10     7     8    1
    11     7     9    1
    12     7    11    1
    13     7    12    1
    14     8    10    1
    15     8    18    1
    16     9    14    1
    17    10    13    1
    18    11    15    1
    19    11    17    2
    20    12    16    1
    21    13    15    1
    22    14    20    1
    23    14    24    1
    24    15    21    2
    25    17    19    1
    26    18    20    2
    27    19    22    1
    28    19    25    1
    29    21    22    1
    30    24    26    1
    31    25    27    1
    32     6    28    1
    33    27    29    1
    34    27    30    1
    35    27    31    1
@<TRIPOS>MOLECULE
129687878
 45 49 0 0 0
SMALL
GASTEIGER

@<TRIPOS>ATOM
      1 O         118.9103  151.8638  147.5992 O.2     1  UNL111     -0.5430
      2 O         119.0994  150.2281  145.5439 O.3     1  UNL111     -0.4348
      3 O         116.5488  153.1522  146.6104 O.2     1  UNL111     -0.3206
      4 N         123.3269  154.4769  147.1659 N.4     1  UNL111      0.4273
      5 N         115.6223  154.1770  146.3929 N.2     1  UNL111      0.1930
      6 N         114.4665  153.8268  146.6976 N.2     1  UNL111     -0.1405
      7 N         113.4075  153.5113  146.9776 N.2     1  UNL111     -0.1254
      8 C         121.1681  152.5243  147.1939 C.3     1  UNL111      0.0517
      9 C         122.4855  152.2516  146.4459 C.3     1  UNL111     -0.0030
     10 C         122.9846  153.6268  145.9137 C.3     1  UNL111     -0.0220
     11 C         120.2599  151.3128  147.4596 C.3     1  UNL111      0.0899
     12 C         120.2214  153.3340  146.3797 C.2     1  UNL111      0.0178
     13 C         121.5095  153.3323  148.4688 C.3     1  UNL111     -0.0261
     14 C         121.9612  154.3341  144.9687 C.3     1  UNL111     -0.0275
     15 C         120.5231  154.1576  145.3759 C.2     1  UNL111     -0.0637
     16 C         122.1845  154.6687  148.1443 C.3     1  UNL111     -0.0364
     17 C         120.2679  150.2026  146.3600 C.3     1  UNL111      0.0604
     18 C         118.8989  152.9579  146.7495 C.2     1  UNL111      0.1197
     19 C         122.3955  151.1728  145.4078 C.2     1  UNL111     -0.0869
     20 C         119.4084  154.8138  144.5979 C.3     1  UNL111     -0.0151
     21 C         121.4151  150.2597  145.3969 C.2     1  UNL111     -0.0672
     22 C         117.8204  153.5827  146.2599 C.2     1  UNL111      0.1710
     23 C         117.9974  154.7069  145.2510 C.3     1  UNL111      0.0389
     24 C         124.0104  155.7805  146.8457 C.3     1  UNL111     -0.0443
     25 H         118.3474  150.4298  146.1322 H       1  UNL111      0.2424
     26 H         124.0398  153.9348  147.6729 H       1  UNL111      0.1328
     27 H         123.2324  151.8773  147.1624 H       1  UNL111      0.0719
     28 H         123.9394  153.5035  145.3878 H       1  UNL111      0.0851
     29 H         120.5308  150.8505  148.4172 H       1  UNL111      0.1416
     30 H         122.1762  152.7366  149.1064 H       1  UNL111      0.0544
     31 H         120.6147  153.5300  149.0731 H       1  UNL111      0.0544
     32 H         122.0737  153.8990  143.9670 H       1  UNL111      0.0593
     33 H         122.1901  155.3989  144.8688 H       1  UNL111      0.0593
     34 H         121.4893  155.3946  147.7108 H       1  UNL111      0.0738
     35 H         122.6133  155.1047  149.0533 H       1  UNL111      0.0738
     36 H         120.2789  149.2267  146.8590 H       1  UNL111      0.1221
     37 H         123.1849  151.0932  144.6617 H       1  UNL111      0.0812
     38 H         119.3715  154.3533  143.6023 H       1  UNL111      0.0501
     39 H         119.6399  155.8750  144.4460 H       1  UNL111      0.0501
     40 H         121.4169  149.4887  144.6265 H       1  UNL111      0.0909
     41 H         117.2656  154.6033  144.4403 H       1  UNL111      0.0718
     42 H         117.7817  155.6567  145.7578 H       1  UNL111      0.0718
     43 H         123.2789  156.4790  146.4342 H       1  UNL111      0.0667
     44 H         124.8142  155.5793  146.1334 H       1  UNL111      0.0667
     45 H         124.4287  156.1728  147.7768 H       1  UNL111      0.0667
@<TRIPOS>UNITY_ATOM_ATTR
4 1
charge 1
6 1
charge 1
7 1
charge -1
@<TRIPOS>BOND
     1     1    11    1
     2     1    18    1
     3     2    17    1
     4     3     5    1
     5     3    22    1
     6     4    10    1
     7     4    16    1
     8     4    24    1
     9     5     6    2
    10     6     7    2
    11     8     9    1
    12     8    11    1
    13     8    12    1
    14     8    13    1
    15     9    10    1
    16     9    19    1
    17    10    14    1
    18    11    17    1
    19    12    15    2
    20    12    18    1
    21    13    16    1
    22    14    15    1
    23    15    20    1
    24    17    21    1
    25    18    22    2
    26    19    21    2
    27    20    23    1
    28    22    23    1
    29     2    25    1
    30     4    26    1
    31     9    27    1
    32    10    28    1
    33    11    29    1
    34    13    30    1
    35    13    31    1
    36    14    32    1
    37    14    33    1
    38    16    34    1
    39    16    35    1
    40    17    36    1
    41    19    37    1
    42    20    38    1
    43    20    39    1
    44    21    40    1
    45    23    41    1
    46    23    42    1
    47    24    43    1
    48    24    44    1
    49    24    45    1
@<TRIPOS>MOLECULE
129780061
 58 63 0 0 0
SMALL
GASTEIGER

@<TRIPOS>ATOM
      1 F         125.1185  155.1832  145.2214 F       1  UNL111     -0.1897
      2 F         123.9998  155.4349  147.0715 F       1  UNL111     -0.1897
      3 F         126.0095  154.6119  147.1234 F       1  UNL111     -0.1897
      4 O         119.6732  153.8523  147.6278 O.2     1  UNL111     -0.5517
      5 O         120.5001  155.7530  145.9583 O.3     1  UNL111     -0.4349
      6 O         120.7643  151.2789  148.2113 O.3     1  UNL111     -0.4046
      7 O         120.4688  151.6231  144.5777 O.2     1  UNL111     -0.3879
      8 N         114.4950  153.3165  146.8681 N.4     1  UNL111      0.4274
      9 C         117.3163  154.0301  147.0306 C.3     1  UNL111      0.0508
     10 C         116.4509  154.4718  145.8365 C.3     1  UNL111     -0.0030
     11 C         115.3914  153.3523  145.6074 C.3     1  UNL111     -0.0209
     12 C         118.6281  154.8281  147.2773 C.3     1  UNL111      0.0874
     13 C         117.9044  152.6910  146.7530 C.2     1  UNL111      0.0136
     14 C         116.4380  153.9654  148.2990 C.3     1  UNL111     -0.0262
     15 C         116.0143  151.9646  145.2852 C.3     1  UNL111     -0.0232
     16 C         117.2414  151.6131  146.0842 C.2     1  UNL111     -0.0521
     17 C         115.2356  153.0343  148.1559 C.3     1  UNL111     -0.0364
     18 C         119.1798  152.6577  147.1126 C.2     1  UNL111      0.0869
     19 C         119.0857  155.7261  146.0933 C.3     1  UNL111      0.0600
     20 C         117.2836  154.8078  144.6273 C.2     1  UNL111     -0.0869
     21 C         120.0406  151.4275  146.9956 C.3     1  UNL111      0.1611
     22 C         118.4957  155.3687  144.7614 C.2     1  UNL111     -0.0672
     23 C         117.7991  150.3908  146.1413 C.2     1  UNL111     -0.0809
     24 C         119.1485  150.1531  146.8105 C.3     1  UNL111      0.0219
     25 C         113.2808  152.4349  146.7220 C.3     1  UNL111     -0.0442
     26 C         120.9108  151.5947  145.7246 C.2     1  UNL111      0.1710
     27 C         122.3626  151.7525  145.9131 C.3     1  UNL111      0.0371
     28 C         122.8950  153.0363  146.0430 C.3     1  UNL111     -0.0098
     29 C         123.1826  150.6254  145.9550 C.3     1  UNL111     -0.0528
     30 C         124.2705  153.2055  146.2590 C.3     1  UNL111      0.0795
     31 C         124.5540  150.7880  146.1461 C.3     1  UNL111     -0.0728
     32 C         125.0945  152.0686  146.3001 C.3     1  UNL111     -0.0406
     33 C         124.8477  154.5914  146.4144 C.3     1  UNL111      0.3655
     34 H         120.8799  155.8795  146.8454 H       1  UNL111      0.2424
     35 H         121.0869  152.1651  148.4584 H       1  UNL111      0.2527
     36 H         114.1100  154.2666  146.9596 H       1  UNL111      0.1328
     37 H         115.9129  155.3961  146.0947 H       1  UNL111      0.0719
     38 H         114.7195  153.6447  144.7907 H       1  UNL111      0.0854
     39 H         118.5313  155.4731  148.1601 H       1  UNL111      0.1410
     40 H         116.0777  154.9764  148.5325 H       1  UNL111      0.0544
     41 H         117.0265  153.6448  149.1686 H       1  UNL111      0.0544
     42 H         116.3176  151.9868  144.2291 H       1  UNL111      0.0612
     43 H         115.2681  151.1676  145.3635 H       1  UNL111      0.0612
     44 H         115.5185  151.9774  148.1626 H       1  UNL111      0.0738
     45 H         114.5286  153.2041  148.9756 H       1  UNL111      0.0738
     46 H         118.7700  156.7563  146.3019 H       1  UNL111      0.1220
     47 H         116.8942  154.6272  143.6271 H       1  UNL111      0.0812
     48 H         119.0742  155.6302  143.8766 H       1  UNL111      0.0909
     49 H         117.3476  149.5408  145.6359 H       1  UNL111      0.0813
     50 H         118.9598  149.6786  147.7827 H       1  UNL111      0.0672
     51 H         119.6973  149.4095  146.2178 H       1  UNL111      0.0672
     52 H         113.5889  151.3880  146.7637 H       1  UNL111      0.0667
     53 H         112.7990  152.6712  145.7702 H       1  UNL111      0.0667
     54 H         112.6033  152.6649  147.5488 H       1  UNL111      0.0667
     55 H         122.2435  153.9042  145.9697 H       1  UNL111      0.1058
     56 H         122.7666  149.6287  145.8332 H       1  UNL111      0.0956
     57 H         125.2064  149.9173  146.1734 H       1  UNL111      0.0893
     58 H         126.1692  152.1764  146.4493 H       1  UNL111      0.0977
@<TRIPOS>UNITY_ATOM_ATTR
8 1
charge 1
@<TRIPOS>BOND
     1     1    33    1
     2     2    33    1
     3     3    33    1
     4     4    12    1
     5     4    18    1
     6     5    19    1
     7     6    21    1
     8     7    26    2
     9     8    11    1
    10     8    17    1
    11     8    25    1
    12     9    10    1
    13     9    12    1
    14     9    13    1
    15     9    14    1
    16    10    11    1
    17    10    20    1
    18    11    15    1
    19    12    19    1
    20    13    16    1
    21    13    18    2
    22    14    17    1
    23    15    16    1
    24    16    23    2
    25    18    21    1
    26    19    22    1
    27    20    22    2
    28    21    24    1
    29    21    26    1
    30    23    24    1
    31    26    27    1
    32    27    28   ar
    33    27    29   ar
    34    28    30   ar
    35    29    31   ar
    36    30    32   ar
    37    30    33    1
    38    31    32   ar
    39     5    34    1
    40     6    35    1
    41     8    36    1
    42    10    37    1
    43    11    38    1
    44    12    39    1
    45    14    40    1
    46    14    41    1
    47    15    42    1
    48    15    43    1
    49    17    44    1
    50    17    45    1
    51    19    46    1
    52    20    47    1
    53    22    48    1
    54    23    49    1
    55    24    50    1
    56    24    51    1
    57    25    52    1
    58    25    53    1
    59    25    54    1
    60    28    55    1
    61    29    56    1
    62    31    57    1
    63    32    58    1
@<TRIPOS>MOLECULE
161910
 51 55 0 0 0
SMALL
GASTEIGER

@<TRIPOS>ATOM
      1 O         120.0292  153.8507  145.1667 O.2     1  UNL111     -0.5395
      2 O         121.8911  152.4506  146.5016 O.3     1  UNL111     -0.5023
      3 O         120.2812  156.6464  145.9378 O.2     1  UNL111     -0.5485
      4 O         122.4600  151.8857  144.3564 O.2     1  UNL111     -0.3392
      5 O         126.9335  152.4839  147.6839 O.co2   1  UNL111     -0.5701
      6 O         126.2391  154.3589  146.5776 O.co2   1  UNL111     -0.5701
      7 N         115.4173  151.6501  146.1782 N.4     1  UNL111      0.4275
      8 C         118.2037  152.3914  145.8213 C.3     1  UNL111      0.0568
      9 C         117.7950  151.3488  146.8723 C.3     1  UNL111     -0.0012
     10 C         116.3805  151.7614  147.3868 C.3     1  UNL111     -0.0204
     11 C         119.6832  152.4324  145.3672 C.3     1  UNL111      0.1046
     12 C         117.2385  152.3408  144.6189 C.3     1  UNL111     -0.0252
     13 C         118.1424  153.7465  146.4456 C.3     1  UNL111      0.0241
     14 C         116.3331  153.1718  148.0517 C.3     1  UNL111     -0.0213
     15 C         115.7787  152.5432  145.0122 C.3     1  UNL111     -0.0363
     16 C         117.2526  154.1764  147.4159 C.3     1  UNL111     -0.0424
     17 C         120.6810  151.7107  146.3251 C.3     1  UNL111      0.1113
     18 C         118.8309  151.1988  147.9543 C.2     1  UNL111     -0.0823
     19 C         119.1732  154.5315  145.9854 C.3     1  UNL111      0.1061
     20 C         120.1343  151.3885  147.6963 C.2     1  UNL111     -0.0495
     21 C         113.9629  151.7741  146.5449 C.3     1  UNL111     -0.0442
     22 C         117.3585  155.5050  147.8369 C.3     1  UNL111     -0.0573
     23 C         119.2842  155.8412  146.3859 C.3     1  UNL111      0.0919
     24 C         118.3596  156.3410  147.3023 C.3     1  UNL111     -0.0140
     25 C         122.7128  152.4555  145.4114 C.2     1  UNL111      0.2210
     26 C         123.9591  153.2379  145.6979 C.3     1  UNL111      0.0725
     27 C         124.9717  152.3648  146.4145 C.3     1  UNL111      0.0206
     28 C         126.1659  153.1531  146.9372 C.2     1  UNL111      0.0264
     29 H         120.9127  156.0788  145.4537 H       1  UNL111      0.3393
     30 H         115.5170  150.6845  145.8362 H       1  UNL111      0.1328
     31 H         117.7106  150.3607  146.3968 H       1  UNL111      0.0721
     32 H         116.0149  151.0146  148.1027 H       1  UNL111      0.0854
     33 H         119.7831  151.9631  144.3798 H       1  UNL111      0.1477
     34 H         117.3414  151.3659  144.1238 H       1  UNL111      0.0545
     35 H         117.5015  153.0950  143.8657 H       1  UNL111      0.0545
     36 H         116.6606  153.0544  149.0932 H       1  UNL111      0.0615
     37 H         115.3150  153.5697  148.0850 H       1  UNL111      0.0615
     38 H         115.5570  153.5771  145.2946 H       1  UNL111      0.0738
     39 H         115.1221  152.2663  144.1800 H       1  UNL111      0.0738
     40 H         120.9266  150.7280  145.8959 H       1  UNL111      0.1530
     41 H         118.5324  150.8989  148.9569 H       1  UNL111      0.0821
     42 H         120.8700  151.2441  148.4873 H       1  UNL111      0.0975
     43 H         113.7369  152.8161  146.7804 H       1  UNL111      0.0667
     44 H         113.7681  151.1217  147.3995 H       1  UNL111      0.0667
     45 H         113.3745  151.4436  145.6844 H       1  UNL111      0.0667
     46 H         116.7002  155.9038  148.6060 H       1  UNL111      0.0939
     47 H         118.4501  157.3706  147.6418 H       1  UNL111      0.1139
     48 H         123.6843  154.1216  146.2869 H       1  UNL111      0.0892
     49 H         124.3570  153.6117  144.7473 H       1  UNL111      0.0892
     50 H         125.3386  151.5852  145.7358 H       1  UNL111      0.0627
     51 H         124.5007  151.8542  147.2639 H       1  UNL111      0.0627
@<TRIPOS>UNITY_ATOM_ATTR
5 1
charge -1
7 1
charge 1
@<TRIPOS>BOND
     1     1    11    1
     2     1    19    1
     3     2    17    1
     4     2    25    1
     5     3    23    1
     6     4    25    2
     7     5    28   ar
     8     6    28   ar
     9     7    10    1
    10     7    15    1
    11     7    21    1
    12     8     9    1
    13     8    11    1
    14     8    12    1
    15     8    13    1
    16     9    10    1
    17     9    18    1
    18    10    14    1
    19    11    17    1
    20    12    15    1
    21    13    16   ar
    22    13    19   ar
    23    14    16    1
    24    16    22   ar
    25    17    20    1
    26    18    20    2
    27    19    23   ar
    28    22    24   ar
    29    23    24   ar
    30    25    26    1
    31    26    27    1
    32    27    28    1
    33     3    29    1
    34     7    30    1
    35     9    31    1
    36    10    32    1
    37    11    33    1
    38    12    34    1
    39    12    35    1
    40    14    36    1
    41    14    37    1
    42    15    38    1
    43    15    39    1
    44    17    40    1
    45    18    41    1
    46    20    42    1
    47    21    43    1
    48    21    44    1
    49    21    45    1
    50    22    46    1
    51    24    47    1
    52    26    48    1
    53    26    49    1
    54    27    50    1
    55    27    51    1
@<TRIPOS>MOLECULE
622766
 51 55 0 0 0
SMALL
GASTEIGER

@<TRIPOS>ATOM
      1 O         120.1495  151.0952  145.7706 O.2     1  UNL111     -0.5395
      2 O         117.5261  152.6658  147.4836 O.3     1  UNL111     -0.5023
      3 O         121.9577  148.8343  146.0006 O.2     1  UNL111     -0.5485
      4 O         117.8891  154.6675  146.4206 O.2     1  UNL111     -0.3392
      5 O         113.0912  152.5153  144.6770 O.co2   1  UNL111     -0.5701
      6 O         112.9834  153.9408  146.4610 O.co2   1  UNL111     -0.5701
      7 N         122.4235  155.7784  145.5403 N.4     1  UNL111      0.4275
      8 C         120.7971  153.4227  146.0392 C.3     1  UNL111      0.0568
      9 C         120.8664  154.5739  147.0569 C.3     1  UNL111     -0.0012
     10 C         122.2977  155.1762  146.9603 C.3     1  UNL111     -0.0204
     11 C         119.6122  152.4299  146.1275 C.3     1  UNL111      0.1046
     12 C         120.9664  153.9775  144.6088 C.3     1  UNL111     -0.0252
     13 C         121.8973  152.4571  146.3280 C.3     1  UNL111      0.0241
     14 C         123.4375  154.1607  147.2806 C.3     1  UNL111     -0.0213
     15 C         122.2521  154.7768  144.4219 C.3     1  UNL111     -0.0363
     16 C         123.1522  152.7543  146.8308 C.3     1  UNL111     -0.0424
     17 C         118.9373  152.3550  147.5311 C.3     1  UNL111      0.1113
     18 C         120.4482  154.1609  148.4427 C.2     1  UNL111     -0.0823
     19 C         121.4763  151.1689  146.0950 C.3     1  UNL111      0.1061
     20 C         119.5677  153.1677  148.6384 C.2     1  UNL111     -0.0495
     21 C         123.6360  156.6428  145.3458 C.3     1  UNL111     -0.0442
     22 C         124.0406  151.6880  146.9991 C.3     1  UNL111     -0.0573
     23 C         122.3437  150.1136  146.2437 C.3     1  UNL111      0.0919
     24 C         123.6408  150.3723  146.6845 C.3     1  UNL111     -0.0140
     25 C         117.1296  153.8341  146.9045 C.2     1  UNL111      0.2210
     26 C         115.6348  153.9378  146.8871 C.3     1  UNL111      0.0725
     27 C         115.0674  153.0253  145.8154 C.3     1  UNL111      0.0206
     28 C         113.5627  153.1792  145.6414 C.2     1  UNL111      0.0264
     29 H         121.0168  148.8698  145.7400 H       1  UNL111      0.3393
     30 H         121.6233  156.4233  145.4524 H       1  UNL111      0.1328
     31 H         120.1694  155.3707  146.7661 H       1  UNL111      0.0721
     32 H         122.3849  156.0367  147.6355 H       1  UNL111      0.0854
     33 H         118.8651  152.6383  145.3534 H       1  UNL111      0.1477
     34 H         120.1103  154.6251  144.3768 H       1  UNL111      0.0545
     35 H         120.9491  153.1712  143.8639 H       1  UNL111      0.0545
     36 H         123.5494  154.1281  148.3725 H       1  UNL111      0.0615
     37 H         124.3975  154.4917  146.8743 H       1  UNL111      0.0615
     38 H         123.1427  154.1408  144.3993 H       1  UNL111      0.0738
     39 H         122.2117  155.3437  143.4852 H       1  UNL111      0.0738
     40 H         118.9747  151.3089  147.8606 H       1  UNL111      0.1530
     41 H         120.7966  154.7317  149.3007 H       1  UNL111      0.0821
     42 H         119.2361  152.9321  149.6482 H       1  UNL111      0.0975
     43 H         124.5244  156.0102  145.2909 H       1  UNL111      0.0667
     44 H         123.6983  157.3408  146.1843 H       1  UNL111      0.0667
     45 H         123.5055  157.1962  144.4119 H       1  UNL111      0.0667
     46 H         125.0384  151.8503  147.4015 H       1  UNL111      0.0939
     47 H         124.3326  149.5446  146.8241 H       1  UNL111      0.1139
     48 H         115.3741  154.9859  146.6971 H       1  UNL111      0.0892
     49 H         115.2488  153.6928  147.8834 H       1  UNL111      0.0892
     50 H         115.2786  151.9770  146.0606 H       1  UNL111      0.0627
     51 H         115.5504  153.2326  144.8521 H       1  UNL111      0.0627
@<TRIPOS>UNITY_ATOM_ATTR
5 1
charge -1
7 1
charge 1
@<TRIPOS>BOND
     1     1    11    1
     2     1    19    1
     3     2    17    1
     4     2    25    1
     5     3    23    1
     6     4    25    2
     7     5    28   ar
     8     6    28   ar
     9     7    10    1
    10     7    15    1
    11     7    21    1
    12     8     9    1
    13     8    11    1
    14     8    12    1
    15     8    13    1
    16     9    10    1
    17     9    18    1
    18    10    14    1
    19    11    17    1
    20    12    15    1
    21    13    16   ar
    22    13    19   ar
    23    14    16    1
    24    16    22   ar
    25    17    20    1
    26    18    20    2
    27    19    23   ar
    28    22    24   ar
    29    23    24   ar
    30    25    26    1
    31    26    27    1
    32    27    28    1
    33     3    29    1
    34     7    30    1
    35     9    31    1
    36    10    32    1
    37    11    33    1
    38    12    34    1
    39    12    35    1
    40    14    36    1
    41    14    37    1
    42    15    38    1
    43    15    39    1
    44    17    40    1
    45    18    41    1
    46    20    42    1
    47    21    43    1
    48    21    44    1
    49    21    45    1
    50    22    46    1
    51    24    47    1
    52    26    48    1
    53    26    49    1
    54    27    50    1
    55    27    51    1
@<TRIPOS>MOLECULE
5491823
 41 45 0 0 0
SMALL
GASTEIGER

@<TRIPOS>ATOM
      1 O         117.9555  154.3738  145.5569 O.3     1  UNL111     -0.5439
      2 O         118.9547  155.8508  147.7305 O.3     1  UNL111     -0.4348
      3 O         115.6082  152.7102  145.9807 O.3     1  UNL111     -0.5485
      4 N         122.7583  152.1367  146.1049 N.4     1  UNL111      0.4275
      5 C         120.2562  153.5824  145.8897 C.3     1  UNL111      0.0532
      6 C         121.1142  153.7042  147.1594 C.3     1  UNL111     -0.0026
      7 C         121.8626  152.3544  147.3300 C.3     1  UNL111     -0.0206
      8 C         119.3578  154.7984  145.5548 C.3     1  UNL111      0.0902
      9 C         121.0725  153.1871  144.6369 C.3     1  UNL111     -0.0259
     10 C         119.2304  152.5806  146.2335 C.ar    1  UNL111      0.0232
     11 C         120.8401  151.1671  147.5305 C.3     1  UNL111     -0.0213
     12 C         121.9814  151.9841  144.8266 C.3     1  UNL111     -0.0364
     13 C         119.4644  151.4061  146.9362 C.ar    1  UNL111     -0.0425
     14 C         119.6320  156.0037  146.4872 C.3     1  UNL111      0.0605
     15 C         121.8490  155.0165  147.1088 C.2     1  UNL111     -0.0869
     16 C         117.9705  153.0642  145.9687 C.ar    1  UNL111      0.1050
     17 C         121.1119  156.1088  146.8152 C.2     1  UNL111     -0.0672
     18 C         123.7755  151.0419  146.2875 C.3     1  UNL111     -0.0442
     19 C         118.3553  150.6006  147.2008 C.ar    1  UNL111     -0.0573
     20 C         116.8716  152.2825  146.2381 C.ar    1  UNL111      0.0917
     21 C         117.0638  151.0304  146.8270 C.ar    1  UNL111     -0.0140
     22 H         118.0131  155.7022  147.5221 H       1  UNL111      0.2424
     23 H         115.6797  153.5967  145.5815 H       1  UNL111      0.3393
     24 H         123.3148  152.9976  146.0068 H       1  UNL111      0.1328
     25 H         120.4832  153.7811  148.0614 H       1  UNL111      0.0720
     26 H         122.5450  152.4043  148.1869 H       1  UNL111      0.0854
     27 H         119.5601  155.1387  144.5296 H       1  UNL111      0.1417
     28 H         121.6954  154.0400  144.3346 H       1  UNL111      0.0544
     29 H         120.4050  152.9828  143.7891 H       1  UNL111      0.0544
     30 H         120.6963  151.0605  148.6141 H       1  UNL111      0.0615
     31 H         121.2375  150.2154  147.1664 H       1  UNL111      0.0615
     32 H         121.4281  151.0408  144.8664 H       1  UNL111      0.0738
     33 H         122.7070  151.9241  144.0078 H       1  UNL111      0.0738
     34 H         119.2722  156.9273  146.0220 H       1  UNL111      0.1221
     35 H         122.8792  155.1148  147.4361 H       1  UNL111      0.0812
     36 H         121.5434  157.1052  146.8718 H       1  UNL111      0.0909
     37 H         123.2667  150.0762  146.3110 H       1  UNL111      0.0667
     38 H         124.3136  151.2285  147.2202 H       1  UNL111      0.0667
     39 H         124.4701  151.0886  145.4443 H       1  UNL111      0.0667
     40 H         118.4587  149.6637  147.7450 H       1  UNL111      0.0939
     41 H         116.1993  150.4096  147.0548 H       1  UNL111      0.1139
@<TRIPOS>UNITY_ATOM_ATTR
4 1
charge 1
@<TRIPOS>BOND
     1     1     8    1
     2     1    16    1
     3     2    14    1
     4     3    20    1
     5     4     7    1
     6     4    12    1
     7     4    18    1
     8     5     6    1
     9     5     8    1
    10     5     9    1
    11     5    10    1
    12     6     7    1
    13     6    15    1
    14     7    11    1
    15     8    14    1
    16     9    12    1
    17    10    13   ar
    18    10    16   ar
    19    11    13    1
    20    13    19   ar
    21    14    17    1
    22    15    17    2
    23    16    20   ar
    24    19    21   ar
    25    20    21   ar
    26     2    22    1
    27     3    23    1
    28     4    24    1
    29     6    25    1
    30     7    26    1
    31     8    27    1
    32     9    28    1
    33     9    29    1
    34    11    30    1
    35    11    31    1
    36    12    32    1
    37    12    33    1
    38    14    34    1
    39    15    35    1
    40    17    36    1
    41    18    37    1
    42    18    38    1
    43    18    39    1
    44    19    40    1
    45    21    41    1
@<TRIPOS>MOLECULE
15942735
 42 47 0 0 0
SMALL
GASTEIGER

@<TRIPOS>ATOM
      1 O         118.9421  155.8653  144.7596 O.3     1  UNL111     -0.4228
      2 O         121.7432  153.8001  147.6283 O.3     1  UNL111     -0.5435
      3 O         121.6412  156.4762  146.8936 O.3     1  UNL111     -0.4302
      4 O         123.9053  152.0357  146.8885 O.3     1  UNL111     -0.5485
      5 N         116.8472  151.9631  146.7858 N.4     1  UNL111      0.4278
      6 C         119.3758  153.3993  147.1357 C.3     1  UNL111      0.0578
      7 C         118.4023  153.7880  146.0110 C.3     1  UNL111      0.0164
      8 C         119.1415  154.4567  144.8737 C.3     1  UNL111      0.0597
      9 C         120.2221  155.4406  145.2560 C.3     1  UNL111      0.0743
     10 C         120.4315  154.4546  147.5787 C.3     1  UNL111      0.0945
     11 C         117.6552  152.4960  145.5796 C.3     1  UNL111     -0.0163
     12 C         120.4423  155.7361  146.7092 C.3     1  UNL111      0.0778
     13 C         118.6058  152.8424  148.3496 C.3     1  UNL111     -0.0254
     14 C         120.2973  152.3726  146.5721 C.ar    1  UNL111      0.0236
     15 C         118.5927  151.3568  145.0573 C.3     1  UNL111     -0.0209
     16 C         117.6849  151.6751  148.0118 C.3     1  UNL111     -0.0364
     17 C         119.9692  151.3714  145.6691 C.ar    1  UNL111     -0.0426
     18 C         121.5960  152.6326  146.9371 C.ar    1  UNL111      0.1049
     19 C         115.6121  152.7744  147.0934 C.3     1  UNL111     -0.0442
     20 C         120.9944  150.5122  145.2613 C.ar    1  UNL111     -0.0573
     21 C         122.6149  151.8002  146.5355 C.ar    1  UNL111      0.0917
     22 C         122.3124  150.7152  145.7153 C.ar    1  UNL111     -0.0140
     23 H         121.5668  157.3002  146.3798 H       1  UNL111      0.2427
     24 H         123.9106  152.8681  147.3998 H       1  UNL111      0.3393
     25 H         116.4743  151.0486  146.4925 H       1  UNL111      0.1327
     26 H         117.6766  154.5135  146.4001 H       1  UNL111      0.0771
     27 H         119.2715  153.8829  143.9665 H       1  UNL111      0.1159
     28 H         121.0970  155.5272  144.6264 H       1  UNL111      0.1244
     29 H         120.2478  154.7771  148.6122 H       1  UNL111      0.1418
     30 H         116.9119  152.7120  144.8028 H       1  UNL111      0.0857
     31 H         119.6211  156.3739  147.0619 H       1  UNL111      0.1269
     32 H         118.0093  153.6512  148.7914 H       1  UNL111      0.0543
     33 H         119.3009  152.5136  149.1335 H       1  UNL111      0.0543
     34 H         118.7181  151.5029  143.9765 H       1  UNL111      0.0615
     35 H         118.1320  150.3720  145.1964 H       1  UNL111      0.0615
     36 H         118.2490  150.7601  147.8042 H       1  UNL111      0.0738
     37 H         117.0024  151.4527  148.8394 H       1  UNL111      0.0738
     38 H         115.9071  153.7404  147.5073 H       1  UNL111      0.0667
     39 H         115.0156  152.2122  147.8169 H       1  UNL111      0.0667
     40 H         115.0471  152.8980  146.1662 H       1  UNL111      0.0667
     41 H         120.8033  149.7057  144.5553 H       1  UNL111      0.0939
     42 H         123.1119  150.0564  145.3824 H       1  UNL111      0.1139
@<TRIPOS>UNITY_ATOM_ATTR
5 1
charge 1
@<TRIPOS>BOND
     1     1     8    1
     2     1     9    1
     3     2    10    1
     4     2    18    1
     5     3    12    1
     6     4    21    1
     7     5    11    1
     8     5    16    1
     9     5    19    1
    10     6     7    1
    11     6    10    1
    12     6    13    1
    13     6    14    1
    14     7     8    1
    15     7    11    1
    16     8     9    1
    17     9    12    1
    18    10    12    1
    19    11    15    1
    20    13    16    1
    21    14    17   ar
    22    14    18   ar
    23    15    17    1
    24    17    20   ar
    25    18    21   ar
    26    20    22   ar
    27    21    22   ar
    28     3    23    1
    29     4    24    1
    30     5    25    1
    31     7    26    1
    32     8    27    1
    33     9    28    1
    34    10    29    1
    35    11    30    1
    36    12    31    1
    37    13    32    1
    38    13    33    1
    39    15    34    1
    40    15    35    1
    41    16    36    1
    42    16    37    1
    43    19    38    1
    44    19    39    1
    45    19    40    1
    46    20    41    1
    47    22    42    1
@<TRIPOS>MOLECULE
16677972
 60 65 0 0 0
SMALL
GASTEIGER

@<TRIPOS>ATOM
      1 O         119.0839  154.6594  146.1451 O.2     1  UNL111     -0.5434
      2 O         121.2392  153.9701  147.8264 O.3     1  UNL111     -0.3935
      3 O         117.5168  157.1001  146.0349 O.2     1  UNL111     -0.5485
      4 O         122.4971  152.6463  146.3755 O.3     1  UNL111     -0.3865
      5 O         123.2738  155.9963  147.6280 O.3     1  UNL111     -0.4257
      6 O         125.7865  155.0873  146.5615 O.3     1  UNL111     -0.4316
      7 O         125.4601  153.3483  144.2917 O.3     1  UNL111     -0.4315
      8 O         122.1523  150.6977  144.3010 O.co2   1  UNL111     -0.5546
      9 O         124.2827  150.3480  145.0671 O.co2   1  UNL111     -0.5546
     10 N         115.5154  151.1553  145.0875 N.4     1  UNL111      0.4292
     11 C         118.0992  152.3780  146.2291 C.3     1  UNL111      0.0520
     12 C         117.7097  151.5436  147.4882 C.3     1  UNL111     -0.0048
     13 C         119.4071  153.2246  146.2962 C.3     1  UNL111      0.0922
     14 C         117.1253  153.5016  146.1529 C.3     1  UNL111      0.0285
     15 C         118.0239  151.5567  144.9243 C.3     1  UNL111     -0.0269
     16 C         115.3330  151.9034  146.4082 C.3     1  UNL111     -0.0061
     17 C         116.1642  151.2525  147.5450 C.3     1  UNL111     -0.0333
     18 C         115.7572  153.3321  146.2442 C.3     1  UNL111     -0.0361
     19 C         120.2133  152.9918  147.5959 C.3     1  UNL111      0.0762
     20 C         116.8808  150.5496  144.8239 C.3     1  UNL111     -0.0356
     21 C         117.7269  154.7261  146.1055 C.3     1  UNL111      0.1072
     22 C         118.1838  152.2040  148.7706 C.2     1  UNL111     -0.0919
     23 C         119.3273  152.9078  148.8073 C.2     1  UNL111     -0.0655
     24 C         114.9554  154.4702  146.2100 C.3     1  UNL111     -0.0499
     25 C         116.9544  155.8635  146.0779 C.3     1  UNL111      0.0924
     26 C         114.4243  150.1461  144.8641 C.3     1  UNL111     -0.0431
     27 C         115.5622  155.7403  146.1198 C.3     1  UNL111     -0.0116
     28 C         122.2047  153.9681  146.7580 C.3     1  UNL111      0.1188
     29 C         123.4979  154.6286  147.2387 C.3     1  UNL111      0.0885
     30 C         124.5188  154.5839  146.0994 C.3     1  UNL111      0.0765
     31 C         124.6942  153.1726  145.4940 C.3     1  UNL111      0.0783
     32 C         123.3269  152.5531  145.1974 C.3     1  UNL111      0.1059
     33 C         123.2766  151.0549  144.7903 C.2     1  UNL111      0.0691
     34 H         118.4843  156.9609  146.0531 H       1  UNL111      0.3393
     35 H         122.5003  155.9607  148.2250 H       1  UNL111      0.2441
     36 H         125.5686  155.9171  147.0299 H       1  UNL111      0.2418
     37 H         126.3313  153.6640  144.5975 H       1  UNL111      0.2419
     38 H         115.3898  151.8697  144.3564 H       1  UNL111      0.1348
     39 H         118.2241  150.5728  147.4472 H       1  UNL111      0.0605
     40 H         120.0462  152.9952  145.4346 H       1  UNL111      0.1419
     41 H         118.9558  150.9861  144.8157 H       1  UNL111      0.0541
     42 H         117.9787  152.2275  144.0546 H       1  UNL111      0.0541
     43 H         114.2662  151.8649  146.6593 H       1  UNL111      0.0947
     44 H         115.7555  151.6138  148.4989 H       1  UNL111      0.0533
     45 H         115.9974  150.1678  147.5587 H       1  UNL111      0.0533
     46 H         120.6835  151.9994  147.5482 H       1  UNL111      0.1271
     47 H         116.8483  150.1457  143.8051 H       1  UNL111      0.0741
     48 H         117.0122  149.7056  145.5089 H       1  UNL111      0.0741
     49 H         117.6246  152.0674  149.6931 H       1  UNL111      0.0783
     50 H         119.6909  153.3347  149.7372 H       1  UNL111      0.0911
     51 H         113.8726  154.4077  146.2835 H       1  UNL111      0.0971
     52 H         114.5007  149.3725  145.6322 H       1  UNL111      0.0670
     53 H         114.5478  149.7217  143.8643 H       1  UNL111      0.0670
     54 H         113.4626  150.6638  144.9227 H       1  UNL111      0.0670
     55 H         114.9500  156.6398  146.1119 H       1  UNL111      0.1143
     56 H         121.7763  154.5384  145.9242 H       1  UNL111      0.1708
     57 H         123.8958  154.1145  148.1217 H       1  UNL111      0.1333
     58 H         124.2115  155.2803  145.3074 H       1  UNL111      0.1245
     59 H         125.2779  152.5446  146.1777 H       1  UNL111      0.1247
     60 H         122.8460  153.1035  144.3767 H       1  UNL111      0.1358
@<TRIPOS>UNITY_ATOM_ATTR
8 1
charge -1
10 1
charge 1
@<TRIPOS>BOND
     1     1    13    1
     2     1    21    1
     3     2    19    1
     4     2    28    1
     5     3    25    1
     6     4    28    1
     7     4    32    1
     8     5    29    1
     9     6    30    1
    10     7    31    1
    11     8    33   ar
    12     9    33   ar
    13    10    16    1
    14    10    20    1
    15    10    26    1
    16    11    12    1
    17    11    13    1
    18    11    14    1
    19    11    15    1
    20    12    17    1
    21    12    22    1
    22    13    19    1
    23    14    18   ar
    24    14    21   ar
    25    15    20    1
    26    16    17    1
    27    16    18    1
    28    18    24   ar
    29    19    23    1
    30    21    25   ar
    31    22    23    2
    32    24    27   ar
    33    25    27   ar
    34    28    29    1
    35    29    30    1
    36    30    31    1
    37    31    32    1
    38    32    33    1
    39     3    34    1
    40     5    35    1
    41     6    36    1
    42     7    37    1
    43    10    38    1
    44    12    39    1
    45    13    40    1
    46    15    41    1
    47    15    42    1
    48    16    43    1
    49    17    44    1
    50    17    45    1
    51    19    46    1
    52    20    47    1
    53    20    48    1
    54    22    49    1
    55    23    50    1
    56    24    51    1
    57    26    52    1
    58    26    53    1
    59    26    54    1
    60    27    55    1
    61    28    56    1
    62    29    57    1
    63    30    58    1
    64    31    59    1
    65    32    60    1
@<TRIPOS>MOLECULE
54017718
 43 47 0 0 0
SMALL
GASTEIGER

@<TRIPOS>ATOM
      1 O         118.6322  152.3562  147.7251 O.2     1  UNL111     -0.5589
      2 O         118.0562  151.1706  145.5123 O.3     1  UNL111     -0.4349
      3 O         116.5529  154.3865  146.7576 O.co2   1  UNL111     -0.4798
      4 O         115.5335  152.6151  147.0996 O.co2   1  UNL111     -0.4538
      5 O         116.4095  153.8108  148.7466 O.2     1  UNL111     -0.0881
      6 N         123.5755  153.5946  146.8862 N.4     1  UNL111      0.4274
      7 N         116.1758  153.5569  147.5617 N.pl3   1  UNL111      0.0162
      8 C         120.9359  152.3778  147.0362 C.3     1  UNL111      0.0500
      9 C         121.9925  151.8805  146.0389 C.3     1  UNL111     -0.0029
     10 C         122.8301  153.1258  145.6152 C.3     1  UNL111     -0.0207
     11 C         119.7270  151.4524  147.3068 C.3     1  UNL111      0.0860
     12 C         121.6521  152.8567  148.3204 C.3     1  UNL111     -0.0262
     13 C         120.1454  153.5161  146.4751 C.3     1  UNL111      0.0079
     14 C         121.9753  154.2646  144.9628 C.3     1  UNL111     -0.0219
     15 C         122.6931  153.9530  148.0582 C.3     1  UNL111     -0.0364
     16 C         120.5870  154.4235  145.5356 C.3     1  UNL111     -0.0484
     17 C         119.2450  150.5964  146.0797 C.3     1  UNL111      0.0600
     18 C         121.4285  151.0775  144.9041 C.2     1  UNL111     -0.0869
     19 C         118.8284  153.4664  146.9209 C.3     1  UNL111      0.0650
     20 C         120.2208  150.4969  144.9461 C.2     1  UNL111     -0.0672
     21 C         124.6253  154.6529  146.6257 C.3     1  UNL111     -0.0442
     22 C         119.6560  155.3606  145.0828 C.3     1  UNL111     -0.0724
     23 C         117.8590  154.3624  146.4647 C.3     1  UNL111      0.0554
     24 C         118.3164  155.3272  145.5499 C.3     1  UNL111     -0.0541
     25 H         117.6373  150.4671  144.9762 H       1  UNL111      0.2424
     26 H         124.1358  152.7837  147.1922 H       1  UNL111      0.1328
     27 H         122.6670  151.1820  146.5571 H       1  UNL111      0.0719
     28 H         123.6238  152.8269  144.9193 H       1  UNL111      0.0854
     29 H         119.9488  150.7777  148.1428 H       1  UNL111      0.1411
     30 H         122.1529  151.9981  148.7872 H       1  UNL111      0.0544
     31 H         120.9359  153.2301  149.0637 H       1  UNL111      0.0544
     32 H         121.8506  154.0080  143.9023 H       1  UNL111      0.0615
     33 H         122.4974  155.2252  144.9969 H       1  UNL111      0.0615
     34 H         122.2234  154.9170  147.8377 H       1  UNL111      0.0738
     35 H         123.3447  154.0754  148.9302 H       1  UNL111      0.0738
     36 H         118.9848  149.5940  146.4387 H       1  UNL111      0.1221
     37 H         122.0599  150.8937  144.0335 H       1  UNL111      0.0812
     38 H         119.9106  149.8879  144.0956 H       1  UNL111      0.0909
     39 H         124.1296  155.6045  146.4238 H       1  UNL111      0.0667
     40 H         125.2309  154.3294  145.7757 H       1  UNL111      0.0667
     41 H         125.2482  154.7281  147.5212 H       1  UNL111      0.0667
     42 H         119.9337  156.0989  144.3278 H       1  UNL111      0.0902
     43 H         117.6007  156.0477  145.1550 H       1  UNL111      0.0918
@<TRIPOS>UNITY_ATOM_ATTR
3 1
charge -1
4 1
charge -1
6 1
charge 1
7 1
charge 1
@<TRIPOS>BOND
     1     1    11    1
     2     1    19    1
     3     2    17    1
     4     3     7    2
     5     3    23    1
     6     4     7    1
     7     5     7    2
     8     6    10    1
     9     6    15    1
    10     6    21    1
    11     8     9    1
    12     8    11    1
    13     8    12    1
    14     8    13    1
    15     9    10    1
    16     9    18    1
    17    10    14    1
    18    11    17    1
    19    12    15    1
    20    13    16   ar
    21    13    19   ar
    22    14    16    1
    23    16    22   ar
    24    17    20    1
    25    18    20    2
    26    19    23   ar
    27    22    24   ar
    28    23    24   ar
    29     2    25    1
    30     6    26    1
    31     9    27    1
    32    10    28    1
    33    11    29    1
    34    12    30    1
    35    12    31    1
    36    14    32    1
    37    14    33    1
    38    15    34    1
    39    15    35    1
    40    17    36    1
    41    18    37    1
    42    20    38    1
    43    21    39    1
    44    21    40    1
    45    21    41    1
    46    22    42    1
    47    24    43    1
@<TRIPOS>MOLECULE
67513718
 49 53 0 0 0
SMALL
GASTEIGER

@<TRIPOS>ATOM
      1 S         122.7914  153.0045  147.3933 S.O2    1  UNL111      0.0808
      2 F         124.5716  153.3320  145.4519 F       1  UNL111     -0.1374
      3 F         124.1155  151.2525  145.9194 F       1  UNL111     -0.1374
      4 F         125.3673  152.4190  147.2672 F       1  UNL111     -0.1374
      5 O         120.1149  154.5633  147.5797 O.2     1  UNL111     -0.5458
      6 O         119.8623  156.2813  145.7142 O.3     1  UNL111     -0.4349
      7 O         121.8157  154.0914  145.0484 O.3     1  UNL111     -0.3831
      8 O         123.0050  154.3463  147.9262 O.2     1  UNL111     -0.2230
      9 O         122.3824  151.9425  148.3099 O.2     1  UNL111     -0.2230
     10 N         116.0481  151.4225  147.0386 N.4     1  UNL111      0.4274
     11 C         117.9677  153.6031  147.1235 C.3     1  UNL111      0.0519
     12 C         116.6905  153.7103  146.2777 C.3     1  UNL111     -0.0028
     13 C         118.7035  154.9301  147.4304 C.3     1  UNL111      0.0888
     14 C         116.3649  152.2714  145.7844 C.3     1  UNL111     -0.0209
     15 C         119.0693  152.9143  146.3940 C.2     1  UNL111      0.0201
     16 C         117.6430  152.7906  148.3982 C.3     1  UNL111     -0.0261
     17 C         117.4941  151.6587  144.9055 C.3     1  UNL111     -0.0230
     18 C         118.9004  151.9221  145.3805 C.2     1  UNL111     -0.0501
     19 C         120.2321  153.4700  146.7148 C.2     1  UNL111      0.1138
     20 C         117.1464  151.3799  148.0813 C.3     1  UNL111     -0.0364
     21 C         118.5961  156.0426  146.3400 C.3     1  UNL111      0.0602
     22 C         116.7751  154.7365  145.1840 C.2     1  UNL111     -0.0869
     23 C         121.5442  153.0974  146.0628 C.3     1  UNL111      0.2414
     24 C         117.6270  155.7703  145.2298 C.2     1  UNL111     -0.0672
     25 C         121.4070  151.7096  145.3458 C.3     1  UNL111      0.0442
     26 C         120.0023  151.3367  144.8804 C.2     1  UNL111     -0.0753
     27 C         115.5338  150.0411  146.7223 C.3     1  UNL111     -0.0442
     28 C         124.2607  152.4906  146.4748 C.3     1  UNL111      0.4859
     29 H         120.4555  156.5928  146.4265 H       1  UNL111      0.2424
     30 H         121.2612  154.8789  145.2328 H       1  UNL111      0.2613
     31 H         115.2515  151.8917  147.4916 H       1  UNL111      0.1328
     32 H         115.8596  154.0436  146.9172 H       1  UNL111      0.0719
     33 H         118.3643  155.3431  148.3885 H       1  UNL111      0.1412
     34 H         115.4301  152.2815  145.2098 H       1  UNL111      0.0854
     35 H         116.8754  153.3212  148.9772 H       1  UNL111      0.0544
     36 H         118.5175  152.7141  149.0573 H       1  UNL111      0.0544
     37 H         117.4045  152.1101  143.9074 H       1  UNL111      0.0612
     38 H         117.3392  150.5846  144.7618 H       1  UNL111      0.0612
     39 H         117.9424  150.7286  147.7071 H       1  UNL111      0.0738
     40 H         116.7181  150.9193  148.9784 H       1  UNL111      0.0738
     41 H         118.2981  156.9808  146.8232 H       1  UNL111      0.1221
     42 H         116.0874  154.6693  144.3418 H       1  UNL111      0.0812
     43 H         117.6248  156.4962  144.4166 H       1  UNL111      0.0909
     44 H         121.7321  150.8901  145.9975 H       1  UNL111      0.0751
     45 H         122.0595  151.7006  144.4636 H       1  UNL111      0.0751
     46 H         119.9308  150.5828  144.0991 H       1  UNL111      0.0825
     47 H         116.3611  149.4228  146.3675 H       1  UNL111      0.0667
     48 H         114.7514  150.1331  145.9650 H       1  UNL111      0.0667
     49 H         115.1140  149.6247  147.6421 H       1  UNL111      0.0667
@<TRIPOS>UNITY_ATOM_ATTR
10 1
charge 1
@<TRIPOS>BOND
     1     1     8    2
     2     1     9    2
     3     1    23    1
     4     1    28    1
     5     2    28    1
     6     3    28    1
     7     4    28    1
     8     5    13    1
     9     5    19    1
    10     6    21    1
    11     7    23    1
    12    10    14    1
    13    10    20    1
    14    10    27    1
    15    11    12    1
    16    11    13    1
    17    11    15    1
    18    11    16    1
    19    12    14    1
    20    12    22    1
    21    13    21    1
    22    14    17    1
    23    15    18    1
    24    15    19    2
    25    16    20    1
    26    17    18    1
    27    18    26    2
    28    19    23    1
    29    21    24    1
    30    22    24    2
    31    23    25    1
    32    25    26    1
    33     6    29    1
    34     7    30    1
    35    10    31    1
    36    12    32    1
    37    13    33    1
    38    14    34    1
    39    16    35    1
    40    16    36    1
    41    17    37    1
    42    17    38    1
    43    20    39    1
    44    20    40    1
    45    21    41    1
    46    22    42    1
    47    24    43    1
    48    25    44    1
    49    25    45    1
    50    26    46    1
    51    27    47    1
    52    27    48    1
    53    27    49    1
@<TRIPOS>MOLECULE
91753910
 54 58 0 0 0
SMALL
GASTEIGER

@<TRIPOS>ATOM
      1 O         118.9876  153.2082  145.2097 O.2     1  UNL111     -0.5385
      2 O         118.8535  156.2688  146.7964 O.3     1  UNL111     -0.5034
      3 O         117.5490  150.6875  145.6132 O.3     1  UNL111     -0.4563
      4 O         117.0717  155.6154  145.5047 O.2     1  UNL111     -0.3412
      5 O         116.8858  151.8726  147.5176 O.2     1  UNL111     -0.3367
      6 N         124.0976  153.0747  145.9054 N.4     1  UNL111      0.4275
      7 C         121.2473  153.6444  145.8983 C.3     1  UNL111      0.0569
      8 C         122.1601  154.2044  146.9948 C.3     1  UNL111     -0.0012
      9 C         123.2843  153.1458  147.2223 C.3     1  UNL111     -0.0204
     10 C         119.8551  154.2909  145.7130 C.3     1  UNL111      0.1047
     11 C         122.0355  153.5530  144.5728 C.3     1  UNL111     -0.0252
     12 C         120.7777  152.2790  146.2701 C.3     1  UNL111      0.0253
     13 C         122.7561  151.7469  147.6738 C.3     1  UNL111     -0.0213
     14 C         123.2896  152.6872  144.6860 C.3     1  UNL111     -0.0363
     15 C         121.4570  151.3450  147.0317 C.3     1  UNL111     -0.0422
     16 C         119.2105  154.8837  147.0062 C.3     1  UNL111      0.1110
     17 C         121.4140  154.6009  148.2361 C.2     1  UNL111     -0.0823
     18 C         119.4949  152.0842  145.8090 C.3     1  UNL111      0.1148
     19 C         120.1077  154.9039  148.2209 C.2     1  UNL111     -0.0495
     20 C         125.3640  152.2655  146.0140 C.3     1  UNL111     -0.0442
     21 C         120.8226  150.1182  147.2496 C.3     1  UNL111     -0.0561
     22 C         118.8517  150.8906  146.0416 C.3     1  UNL111      0.1321
     23 C         119.5291  149.8829  146.7365 C.3     1  UNL111     -0.0054
     24 C         117.7329  156.4829  146.0535 C.2     1  UNL111      0.2147
     25 C         116.6317  151.3153  146.4564 C.2     1  UNL111      0.2291
     26 C         117.4137  157.9459  146.0124 C.3     1  UNL111      0.0550
     27 C         115.2557  151.1730  145.8475 C.3     1  UNL111      0.0596
     28 C         114.1699  151.7054  146.7658 C.3     1  UNL111     -0.0378
     29 H         124.4241  154.0357  145.7328 H       1  UNL111      0.1328
     30 H         122.6326  155.1303  146.6348 H       1  UNL111      0.0721
     31 H         123.9975  153.5169  147.9689 H       1  UNL111      0.0854
     32 H         119.8922  155.0557  144.9275 H       1  UNL111      0.1477
     33 H         122.3268  154.5652  144.2620 H       1  UNL111      0.0545
     34 H         121.4121  153.1541  143.7621 H       1  UNL111      0.0545
     35 H         122.5739  151.7985  148.7554 H       1  UNL111      0.0615
     36 H         123.5045  150.9651  147.5173 H       1  UNL111      0.0615
     37 H         123.0575  151.6200  144.7597 H       1  UNL111      0.0738
     38 H         123.9335  152.8393  143.8128 H       1  UNL111      0.0738
     39 H         118.3057  154.3264  147.2815 H       1  UNL111      0.1530
     40 H         121.9593  154.6974  149.1738 H       1  UNL111      0.0821
     41 H         119.6244  155.2096  149.1487 H       1  UNL111      0.0975
     42 H         125.1111  151.2039  146.0509 H       1  UNL111      0.0667
     43 H         125.8947  152.5802  146.9158 H       1  UNL111      0.0667
     44 H         125.9718  152.4809  145.1309 H       1  UNL111      0.0667
     45 H         121.2972  149.3438  147.8500 H       1  UNL111      0.0940
     46 H         119.0342  148.9343  146.9319 H       1  UNL111      0.1154
     47 H         118.3147  158.5197  145.7791 H       1  UNL111      0.0793
     48 H         116.9990  158.2592  146.9733 H       1  UNL111      0.0793
     49 H         116.6800  158.1341  145.2235 H       1  UNL111      0.0793
     50 H         115.0702  150.1119  145.6498 H       1  UNL111      0.0846
     51 H         115.2387  151.7235  144.9012 H       1  UNL111      0.0846
     52 H         114.1679  151.1714  147.7219 H       1  UNL111      0.0335
     53 H         113.1857  151.5833  146.3033 H       1  UNL111      0.0335
     54 H         114.3196  152.7694  146.9771 H       1  UNL111      0.0335
@<TRIPOS>UNITY_ATOM_ATTR
6 1
charge 1
@<TRIPOS>BOND
     1     1    10    1
     2     1    18    1
     3     2    16    1
     4     2    24    1
     5     3    22    1
     6     3    25    1
     7     4    24    2
     8     5    25    2
     9     6     9    1
    10     6    14    1
    11     6    20    1
    12     7     8    1
    13     7    10    1
    14     7    11    1
    15     7    12    1
    16     8     9    1
    17     8    17    1
    18     9    13    1
    19    10    16    1
    20    11    14    1
    21    12    15   ar
    22    12    18   ar
    23    13    15    1
    24    15    21   ar
    25    16    19    1
    26    17    19    2
    27    18    22   ar
    28    21    23   ar
    29    22    23   ar
    30    24    26    1
    31    25    27    1
    32    27    28    1
    33     6    29    1
    34     8    30    1
    35     9    31    1
    36    10    32    1
    37    11    33    1
    38    11    34    1
    39    13    35    1
    40    13    36    1
    41    14    37    1
    42    14    38    1
    43    16    39    1
    44    17    40    1
    45    19    41    1
    46    20    42    1
    47    20    43    1
    48    20    44    1
    49    21    45    1
    50    23    46    1
    51    26    47    1
    52    26    48    1
    53    26    49    1
    54    27    50    1
    55    27    51    1
    56    28    52    1
    57    28    53    1
    58    28    54    1
@<TRIPOS>MOLECULE
117862198
 52 55 0 0 0
SMALL
GASTEIGER

@<TRIPOS>ATOM
      1 O         114.8512  153.0888  144.7079 O.2     1  UNL111     -0.3711
      2 N         122.0360  153.2728  146.5432 N.4     1  UNL111      0.4277
      3 N         114.1629  151.4522  146.0839 N.am    1  UNL111     -0.3164
      4 C         124.2341  152.0661  146.0718 C.3     1  UNL111     -0.0484
      5 C         119.5318  154.7186  146.1129 C.3     1  UNL111     -0.0155
      6 C         121.2334  153.8230  147.7261 C.3     1  UNL111     -0.0285
      7 C         120.4884  155.0930  147.2880 C.3     1  UNL111     -0.0372
      8 C         122.9878  152.1566  146.9288 C.3     1  UNL111     -0.0377
      9 C         124.9464  150.7278  146.0249 C.3     1  UNL111     -0.0510
     10 C         124.2122  151.2210  144.8127 C.3     1  UNL111     -0.0510
     11 C         120.3398  154.1247  144.9333 C.3     1  UNL111     -0.0426
     12 C         121.2088  152.9358  145.3282 C.3     1  UNL111     -0.0385
     13 C         120.2468  152.8045  148.3197 C.3     1  UNL111     -0.0261
     14 C         118.5480  153.6305  146.5950 C.3     1  UNL111     -0.0582
     15 C         125.1104  153.2968  146.0746 C.3     1  UNL111     -0.0593
     16 C         118.9133  152.7274  147.6149 C.3     1  UNL111     -0.0658
     17 C         118.7992  155.9885  145.6210 C.3     1  UNL111     -0.0527
     18 C         121.4708  156.2413  147.0051 C.3     1  UNL111     -0.0577
     19 C         117.2899  153.4587  145.9850 C.3     1  UNL111     -0.0421
     20 C         118.0105  151.7317  148.0279 C.3     1  UNL111     -0.0720
     21 C         116.3911  152.4557  146.3903 C.3     1  UNL111      0.0407
     22 C         116.7595  151.5957  147.4232 C.3     1  UNL111     -0.0481
     23 C         115.0896  152.3634  145.6665 C.2     1  UNL111      0.1758
     24 H         122.6516  154.0383  146.2522 H       1  UNL111      0.1342
     25 H         113.2918  151.4235  145.5669 H       1  UNL111      0.1810
     26 H         114.2552  150.8287  146.8692 H       1  UNL111      0.1810
     27 H         121.9814  154.0733  148.4888 H       1  UNL111      0.0831
     28 H         119.8781  155.4321  148.1391 H       1  UNL111      0.0568
     29 H         122.4141  151.2223  146.9117 H       1  UNL111      0.0755
     30 H         123.2967  152.3386  147.9647 H       1  UNL111      0.0755
     31 H         124.5301  149.8771  146.5554 H       1  UNL111      0.0379
     32 H         126.0320  150.7037  145.9791 H       1  UNL111      0.0379
     33 H         124.8091  151.5330  143.9600 H       1  UNL111      0.0379
     34 H         123.3148  150.6808  144.5304 H       1  UNL111      0.0379
     35 H         120.9832  154.8983  144.4949 H       1  UNL111      0.0505
     36 H         119.6666  153.8087  144.1254 H       1  UNL111      0.0505
     37 H         120.6254  152.0364  145.5481 H       1  UNL111      0.0737
     38 H         121.8998  152.7067  144.5119 H       1  UNL111      0.0737
     39 H         120.0388  153.1082  149.3548 H       1  UNL111      0.0609
     40 H         120.6970  151.8071  148.3682 H       1  UNL111      0.0609
     41 H         125.2019  153.7045  147.0867 H       1  UNL111      0.0310
     42 H         124.6841  154.0704  145.4277 H       1  UNL111      0.0310
     43 H         126.1206  153.0827  145.7095 H       1  UNL111      0.0310
     44 H         119.5012  156.7619  145.2927 H       1  UNL111      0.0316
     45 H         118.1711  156.4143  146.4116 H       1  UNL111      0.0316
     46 H         118.1617  155.7924  144.7528 H       1  UNL111      0.0316
     47 H         122.0548  156.0903  146.0937 H       1  UNL111      0.0307
     48 H         122.1757  156.3549  147.8364 H       1  UNL111      0.0307
     49 H         120.9429  157.1954  146.9114 H       1  UNL111      0.0307
     50 H         116.9776  154.1056  145.1664 H       1  UNL111      0.0992
     51 H         118.2756  151.0471  148.8335 H       1  UNL111      0.0908
     52 H         116.1024  150.8073  147.7738 H       1  UNL111      0.0970
@<TRIPOS>UNITY_ATOM_ATTR
2 1
charge 1
@<TRIPOS>BOND
     1     1    23    2
     2     2     6    1
     3     2     8    1
     4     2    12    1
     5     3    23   am
     6     4     8    1
     7     4     9    1
     8     4    10    1
     9     4    15    1
    10     5     7    1
    11     5    11    1
    12     5    14    1
    13     5    17    1
    14     6     7    1
    15     6    13    1
    16     7    18    1
    17     9    10    1
    18    11    12    1
    19    13    16    1
    20    14    16   ar
    21    14    19   ar
    22    16    20   ar
    23    19    21   ar
    24    20    22   ar
    25    21    22   ar
    26    21    23    1
    27     2    24    1
    28     3    25    1
    29     3    26    1
    30     6    27    1
    31     7    28    1
    32     8    29    1
    33     8    30    1
    34     9    31    1
    35     9    32    1
    36    10    33    1
    37    10    34    1
    38    11    35    1
    39    11    36    1
    40    12    37    1
    41    12    38    1
    42    13    39    1
    43    13    40    1
    44    15    41    1
    45    15    42    1
    46    15    43    1
    47    17    44    1
    48    17    45    1
    49    17    46    1
    50    18    47    1
    51    18    48    1
    52    18    49    1
    53    19    50    1
    54    20    51    1
    55    22    52    1
@<TRIPOS>MOLECULE
129627924
 47 51 0 0 0
SMALL
GASTEIGER

@<TRIPOS>ATOM
      1 O         117.8696  152.8747  145.4801 O.3     1  UNL111     -0.5410
      2 O         116.6454  154.5034  147.1252 O.3     1  UNL111     -0.4317
      3 O         117.0444  150.1264  145.8056 O.3     1  UNL111     -0.5485
      4 N         123.0698  153.7890  146.0067 N.4     1  UNL111      0.4275
      5 C         120.1415  153.7289  145.9014 C.3     1  UNL111      0.0552
      6 C         118.6289  154.1422  145.6890 C.3     1  UNL111      0.0911
      7 C         120.8970  154.3897  147.0774 C.3     1  UNL111     -0.0017
      8 C         122.2301  153.6006  147.2858 C.3     1  UNL111     -0.0204
      9 C         121.0070  153.7869  144.6171 C.3     1  UNL111     -0.0251
     10 C         119.9330  152.2930  146.2782 C.ar    1  UNL111      0.0244
     11 C         118.0036  154.9038  146.9375 C.3     1  UNL111      0.0621
     12 C         122.0238  152.0951  147.6306 C.3     1  UNL111     -0.0213
     13 C         122.4177  153.2247  144.7717 C.3     1  UNL111     -0.0362
     14 C         120.8036  151.4839  146.9956 C.ar    1  UNL111     -0.0423
     15 C         120.0474  154.4604  148.3217 C.2     1  UNL111     -0.0857
     16 C         118.6706  151.8724  145.9414 C.ar    1  UNL111      0.1065
     17 C         118.3565  154.9043  144.3775 C.3     1  UNL111     -0.0156
     18 C         118.7210  154.6453  148.2412 C.2     1  UNL111     -0.0644
     19 C         117.9711  156.4349  146.7751 C.3     1  UNL111     -0.0246
     20 C         120.4185  150.1583  147.2253 C.ar    1  UNL111     -0.0572
     21 C         124.5018  153.3366  146.1430 C.3     1  UNL111     -0.0442
     22 C         118.2795  150.5699  146.1567 C.ar    1  UNL111      0.0921
     23 C         119.1662  149.6968  146.7810 C.ar    1  UNL111     -0.0140
     24 H         116.5935  153.5567  146.8961 H       1  UNL111      0.2445
     25 H         116.5793  150.8689  145.3779 H       1  UNL111      0.3393
     26 H         123.1403  154.8057  145.8609 H       1  UNL111      0.1328
     27 H         121.1517  155.4260  146.8128 H       1  UNL111      0.0722
     28 H         122.8197  154.0753  148.0802 H       1  UNL111      0.0854
     29 H         121.0956  154.8332  144.2971 H       1  UNL111      0.0546
     30 H         120.5285  153.2419  143.7939 H       1  UNL111      0.0546
     31 H         121.8837  152.0266  148.7177 H       1  UNL111      0.0615
     32 H         122.9056  151.4949  147.3894 H       1  UNL111      0.0615
     33 H         122.4314  152.1327  144.8434 H       1  UNL111      0.0738
     34 H         123.0356  153.5192  143.9161 H       1  UNL111      0.0738
     35 H         120.5081  154.3741  149.3041 H       1  UNL111      0.0814
     36 H         118.5809  154.2899  143.4988 H       1  UNL111      0.0485
     37 H         118.9327  155.8316  144.3094 H       1  UNL111      0.0485
     38 H         117.2907  155.1456  144.2860 H       1  UNL111      0.0485
     39 H         118.1283  154.7135  149.1532 H       1  UNL111      0.0924
     40 H         117.2786  156.7412  145.9833 H       1  UNL111      0.0447
     41 H         118.9620  156.8475  146.5569 H       1  UNL111      0.0447
     42 H         117.5958  156.9215  147.6850 H       1  UNL111      0.0447
     43 H         121.0580  149.4784  147.7856 H       1  UNL111      0.0939
     44 H         124.5365  152.2456  146.1628 H       1  UNL111      0.0667
     45 H         124.9090  153.7646  147.0622 H       1  UNL111      0.0667
     46 H         125.0532  153.7190  145.2797 H       1  UNL111      0.0667
     47 H         118.8636  148.6694  146.9720 H       1  UNL111      0.1139
@<TRIPOS>UNITY_ATOM_ATTR
4 1
charge 1
@<TRIPOS>BOND
     1     1     6    1
     2     1    16    1
     3     2    11    1
     4     3    22    1
     5     4     8    1
     6     4    13    1
     7     4    21    1
     8     5     6    1
     9     5     7    1
    10     5     9    1
    11     5    10    1
    12     6    11    1
    13     6    17    1
    14     7     8    1
    15     7    15    1
    16     8    12    1
    17     9    13    1
    18    10    14   ar
    19    10    16   ar
    20    11    18    1
    21    11    19    1
    22    12    14    1
    23    14    20   ar
    24    15    18    2
    25    16    22   ar
    26    20    23   ar
    27    22    23   ar
    28     2    24    1
    29     3    25    1
    30     4    26    1
    31     7    27    1
    32     8    28    1
    33     9    29    1
    34     9    30    1
    35    12    31    1
    36    12    32    1
    37    13    33    1
    38    13    34    1
    39    15    35    1
    40    17    36    1
    41    17    37    1
    42    17    38    1
    43    18    39    1
    44    19    40    1
    45    19    41    1
    46    19    42    1
    47    20    43    1
    48    21    44    1
    49    21    45    1
    50    21    46    1
    51    23    47    1
@<TRIPOS>MOLECULE
139066191
 59 65 0 0 0
SMALL
GASTEIGER

@<TRIPOS>ATOM
      1 O         120.2689  152.4808  147.2957 O.2     1  UNL111     -0.5429
      2 O         119.6963  150.5914  145.4809 O.3     1  UNL111     -0.4348
      3 O         118.6265  154.8096  146.5445 O.3     1  UNL111     -0.4461
      4 O         118.3746  153.0277  145.0489 O.2     1  UNL111     -0.3179
      5 N         125.4397  153.1513  147.2565 N.4     1  UNL111      0.4275
      6 C         122.6701  152.3096  147.0005 C.3     1  UNL111      0.0533
      7 C         123.7365  151.8307  146.0017 C.3     1  UNL111     -0.0026
      8 C         124.7773  152.9860  145.8673 C.3     1  UNL111     -0.0206
      9 C         121.3473  151.5075  147.0873 C.3     1  UNL111      0.0903
     10 C         123.3023  152.5358  148.3890 C.3     1  UNL111     -0.0259
     11 C         122.0951  153.5955  146.5021 C.3     1  UNL111      0.0245
     12 C         124.1729  154.3237  145.3383 C.3     1  UNL111     -0.0213
     13 C         124.4769  153.5111  148.3650 C.3     1  UNL111     -0.0364
     14 C         122.7607  154.5805  145.7899 C.3     1  UNL111     -0.0423
     15 C         121.0618  150.5909  145.8622 C.3     1  UNL111      0.0605
     16 C         123.1344  151.3805  144.6953 C.2     1  UNL111     -0.0869
     17 C         120.7400  153.6384  146.7388 C.3     1  UNL111      0.1142
     18 C         121.9084  150.8361  144.6450 C.2     1  UNL111     -0.0672
     19 C         126.6490  154.0507  147.2520 C.3     1  UNL111     -0.0442
     20 C         122.0262  155.7096  145.4134 C.3     1  UNL111     -0.0561
     21 C         119.9997  154.7312  146.3414 C.3     1  UNL111      0.1348
     22 C         120.6515  155.7951  145.7100 C.3     1  UNL111     -0.0050
     23 C         117.9223  153.8548  145.8270 C.2     1  UNL111      0.2783
     24 C         116.4878  153.9947  146.1741 C.3     1  UNL111      0.0899
     25 C         115.7080  152.8692  146.5528 C.3     1  UNL111     -0.0012
     26 C         115.9196  155.2770  146.0868 C.3     1  UNL111     -0.0364
     27 C         114.3371  153.0837  146.8460 C.3     1  UNL111     -0.0389
     28 C         114.5743  155.4642  146.3796 C.3     1  UNL111     -0.0744
     29 C         116.2037  151.5476  146.6721 C.3     1  UNL111     -0.0639
     30 C         113.7916  154.3749  146.7557 C.3     1  UNL111     -0.0706
     31 C         113.5227  152.0048  147.2277 C.3     1  UNL111     -0.0717
     32 C         115.3796  150.4858  147.0515 C.3     1  UNL111     -0.0822
     33 C         114.0391  150.7144  147.3285 C.3     1  UNL111     -0.0831
     34 H         119.4179  151.5212  145.3258 H       1  UNL111      0.2424
     35 H         125.8160  152.2232  147.4959 H       1  UNL111      0.1328
     36 H         124.2541  150.9515  146.4125 H       1  UNL111      0.0720
     37 H         125.5941  152.6736  145.2048 H       1  UNL111      0.0854
     38 H         121.3455  150.8688  147.9800 H       1  UNL111      0.1417
     39 H         123.6512  151.5704  148.7793 H       1  UNL111      0.0544
     40 H         122.5597  152.9058  149.1079 H       1  UNL111      0.0544
     41 H         124.1488  154.2594  144.2423 H       1  UNL111      0.0615
     42 H         124.8031  155.1812  145.5896 H       1  UNL111      0.0615
     43 H         124.1594  154.5477  148.2151 H       1  UNL111      0.0738
     44 H         125.0341  153.4543  149.3066 H       1  UNL111      0.0738
     45 H         121.2850  149.5606  146.1682 H       1  UNL111      0.1221
     46 H         123.7135  151.4560  143.7768 H       1  UNL111      0.0812
     47 H         121.5101  150.4817  143.6952 H       1  UNL111      0.0909
     48 H         126.3265  155.0886  147.1485 H       1  UNL111      0.0667
     49 H         127.2956  153.7500  146.4240 H       1  UNL111      0.0667
     50 H         127.1716  153.9079  148.2019 H       1  UNL111      0.0667
     51 H         122.4921  156.5148  144.8477 H       1  UNL111      0.0940
     52 H         120.0835  156.6668  145.3933 H       1  UNL111      0.1154
     53 H         116.5183  156.1316  145.7805 H       1  UNL111      0.0994
     54 H         114.1296  156.4542  146.3109 H       1  UNL111      0.0893
     55 H         117.2468  151.3191  146.4646 H       1  UNL111      0.0934
     56 H         112.7386  154.5418  146.9783 H       1  UNL111      0.0923
     57 H         112.4686  152.1613  147.4499 H       1  UNL111      0.0922
     58 H         115.7894  149.4814  147.1242 H       1  UNL111      0.0881
     59 H         113.3934  149.8904  147.6209 H       1  UNL111      0.0880
@<TRIPOS>UNITY_ATOM_ATTR
5 1
charge 1
@<TRIPOS>BOND
     1     1     9    1
     2     1    17    1
     3     2    15    1
     4     3    21    1
     5     3    23    1
     6     4    23    2
     7     5     8    1
     8     5    13    1
     9     5    19    1
    10     6     7    1
    11     6     9    1
    12     6    10    1
    13     6    11    1
    14     7     8    1
    15     7    16    1
    16     8    12    1
    17     9    15    1
    18    10    13    1
    19    11    14   ar
    20    11    17   ar
    21    12    14    1
    22    14    20   ar
    23    15    18    1
    24    16    18    2
    25    17    21   ar
    26    20    22   ar
    27    21    22   ar
    28    23    24    1
    29    24    25   ar
    30    24    26   ar
    31    25    27   ar
    32    25    29   ar
    33    26    28   ar
    34    27    30   ar
    35    27    31   ar
    36    28    30   ar
    37    29    32   ar
    38    31    33   ar
    39    32    33   ar
    40     2    34    1
    41     5    35    1
    42     7    36    1
    43     8    37    1
    44     9    38    1
    45    10    39    1
    46    10    40    1
    47    12    41    1
    48    12    42    1
    49    13    43    1
    50    13    44    1
    51    15    45    1
    52    16    46    1
    53    18    47    1
    54    19    48    1
    55    19    49    1
    56    19    50    1
    57    20    51    1
    58    22    52    1
    59    26    53    1
    60    28    54    1
    61    29    55    1
    62    30    56    1
    63    31    57    1
    64    32    58    1
    65    33    59    1
@<TRIPOS>MOLECULE
158392
 52 57 0 0 0
SMALL
GASTEIGER

@<TRIPOS>ATOM
      1 O         119.7543  152.4373  147.6506 O.2     1  UNL111     -0.5429
      2 O         119.3350  150.1527  146.3161 O.3     1  UNL111     -0.4348
      3 O         117.7665  154.3204  146.5788 O.3     1  UNL111     -0.4456
      4 O         117.6809  152.2912  145.4256 O.2     1  UNL111     -0.3170
      5 N         124.7695  153.7140  147.0070 N.4     1  UNL111      0.4275
      6 N         113.8710  154.0713  147.7197 N.pl3   1  UNL111     -0.3003
      7 C         122.1350  152.4981  147.1843 C.3     1  UNL111      0.0533
      8 C         123.1966  151.9451  146.2196 C.3     1  UNL111     -0.0026
      9 C         124.0550  153.1614  145.7500 C.3     1  UNL111     -0.0206
     10 C         120.9424  151.5797  147.5547 C.3     1  UNL111      0.0903
     11 C         122.8127  153.1014  148.4317 C.3     1  UNL111     -0.0259
     12 C         121.3584  153.5627  146.4801 C.3     1  UNL111      0.0245
     13 C         123.2380  154.2612  145.0038 C.3     1  UNL111     -0.0213
     14 C         123.8347  154.1858  148.0973 C.3     1  UNL111     -0.0364
     15 C         121.8356  154.4395  145.5190 C.3     1  UNL111     -0.0423
     16 C         120.7086  150.3903  146.5779 C.3     1  UNL111      0.0605
     17 C         122.5878  151.1432  145.0981 C.2     1  UNL111     -0.0869
     18 C         120.0282  153.4930  146.8250 C.3     1  UNL111      0.1142
     19 C         121.4471  150.4570  145.2708 C.2     1  UNL111     -0.0672
     20 C         125.8341  154.7368  146.7024 C.3     1  UNL111     -0.0442
     21 C         120.9307  155.3610  144.9822 C.3     1  UNL111     -0.0561
     22 C         119.1219  154.3738  146.2761 C.3     1  UNL111      0.1348
     23 C         119.5789  155.3434  145.3784 C.3     1  UNL111     -0.0050
     24 C         117.1577  153.1793  146.0860 C.2     1  UNL111      0.2823
     25 C         115.7179  153.1978  146.4208 C.3     1  UNL111      0.1025
     26 C         114.8412  152.3496  145.7394 C.3     1  UNL111     -0.0259
     27 C         115.1875  154.0283  147.3995 C.3     1  UNL111      0.0213
     28 C         113.4825  152.3751  146.0482 C.3     1  UNL111     -0.0510
     29 C         113.0485  153.2451  147.0357 C.3     1  UNL111     -0.0230
     30 H         118.9234  150.9948  146.0239 H       1  UNL111      0.2424
     31 H         125.2896  152.9180  147.4021 H       1  UNL111      0.1328
     32 H         123.8564  151.2510  146.7605 H       1  UNL111      0.0720
     33 H         124.8666  152.8127  145.0992 H       1  UNL111      0.0854
     34 H         121.0840  151.1563  148.5576 H       1  UNL111      0.1417
     35 H         123.3173  152.2968  148.9832 H       1  UNL111      0.0544
     36 H         122.0708  153.5257  149.1207 H       1  UNL111      0.0544
     37 H         123.1532  153.9486  143.9544 H       1  UNL111      0.0615
     38 H         123.7574  155.2235  145.0045 H       1  UNL111      0.0615
     39 H         123.3653  155.1161  147.7622 H       1  UNL111      0.0738
     40 H         124.4507  154.4081  148.9757 H       1  UNL111      0.0738
     41 H         121.0783  149.4840  147.0747 H       1  UNL111      0.1221
     42 H         123.0991  151.0785  144.1394 H       1  UNL111      0.0812
     43 H         121.0499  149.8519  144.4569 H       1  UNL111      0.0909
     44 H         125.3594  155.6765  146.4128 H       1  UNL111      0.0667
     45 H         126.4647  154.3455  145.9003 H       1  UNL111      0.0667
     46 H         126.4295  154.8754  147.6089 H       1  UNL111      0.0667
     47 H         121.2446  156.0715  144.2192 H       1  UNL111      0.0940
     48 H         118.8770  156.0479  144.9375 H       1  UNL111      0.1154
     49 H         115.2078  151.6747  144.9690 H       1  UNL111      0.1017
     50 H         115.8054  154.7032  147.9848 H       1  UNL111      0.1457
     51 H         112.7787  151.7315  145.5308 H       1  UNL111      0.0990
     52 H         111.9986  153.3015  147.3118 H       1  UNL111      0.1342
@<TRIPOS>UNITY_ATOM_ATTR
5 1
charge 1
@<TRIPOS>BOND
     1     1    10    1
     2     1    18    1
     3     2    16    1
     4     3    22    1
     5     3    24    1
     6     4    24    2
     7     5     9    1
     8     5    14    1
     9     5    20    1
    10     6    27   ar
    11     6    29   ar
    12     7     8    1
    13     7    10    1
    14     7    11    1
    15     7    12    1
    16     8     9    1
    17     8    17    1
    18     9    13    1
    19    10    16    1
    20    11    14    1
    21    12    15   ar
    22    12    18   ar
    23    13    15    1
    24    15    21   ar
    25    16    19    1
    26    17    19    2
    27    18    22   ar
    28    21    23   ar
    29    22    23   ar
    30    24    25    1
    31    25    26   ar
    32    25    27   ar
    33    26    28   ar
    34    28    29   ar
    35     2    30    1
    36     5    31    1
    37     8    32    1
    38     9    33    1
    39    10    34    1
    40    11    35    1
    41    11    36    1
    42    13    37    1
    43    13    38    1
    44    14    39    1
    45    14    40    1
    46    16    41    1
    47    17    42    1
    48    19    43    1
    49    20    44    1
    50    20    45    1
    51    20    46    1
    52    21    47    1
    53    23    48    1
    54    26    49    1
    55    27    50    1
    56    28    51    1
    57    29    52    1
@<TRIPOS>MOLECULE
632235
 52 56 0 0 0
SMALL
GASTEIGER

@<TRIPOS>ATOM
      1 O         120.7766  151.5006  146.1520 O.3     1  UNL111     -0.5306
      2 O         117.8670  151.3494  145.0224 O.3     1  UNL111     -0.3986
      3 O         117.8188  150.1826  147.0263 O.3     1  UNL111     -0.3986
      4 O         115.7715  152.0417  146.9808 O.2     1  UNL111     -0.5501
      5 O         123.6439  151.3146  146.2364 O.3     1  UNL111     -0.5683
      6 N         118.7384  156.2198  145.6855 N.4     1  UNL111      0.4276
      7 C         119.5592  153.5248  146.3725 C.3     1  UNL111      0.0664
      8 C         118.7533  154.3104  147.3904 C.3     1  UNL111      0.0147
      9 C         119.5525  152.0377  146.7344 C.3     1  UNL111      0.1320
     10 C         119.0950  155.8046  147.1224 C.3     1  UNL111     -0.0178
     11 C         119.2247  153.8992  144.9043 C.3     1  UNL111     -0.0236
     12 C         120.9964  153.7406  146.5970 C.ar    1  UNL111      0.0262
     13 C         120.6449  156.0742  147.3784 C.3     1  UNL111     -0.0210
     14 C         118.1447  151.4412  146.4291 C.3     1  UNL111      0.1790
     15 C         119.4002  155.3828  144.6155 C.3     1  UNL111     -0.0361
     16 C         121.5646  154.9280  147.0057 C.ar    1  UNL111     -0.0422
     17 C         117.3497  153.7438  147.3723 C.2     1  UNL111     -0.0214
     18 C         121.6697  152.5458  146.3856 C.ar    1  UNL111      0.1093
     19 C         117.0846  152.4849  146.9482 C.2     1  UNL111      0.0883
     20 C         122.9492  154.9078  147.1203 C.ar    1  UNL111     -0.0570
     21 C         117.2584  156.3975  145.4440 C.3     1  UNL111     -0.0442
     22 C         123.0424  152.5108  146.4770 C.ar    1  UNL111      0.0930
     23 C         123.6793  153.7163  146.8395 C.ar    1  UNL111     -0.0130
     24 C         118.5250  150.2764  144.3596 C.3     1  UNL111      0.0156
     25 C         118.2399  149.9705  148.3633 C.3     1  UNL111      0.0156
     26 C         125.0623  151.2724  146.3263 C.3     1  UNL111      0.0331
     27 H         115.7911  151.1113  146.6672 H       1  UNL111      0.3377
     28 H         119.1224  157.1666  145.5643 H       1  UNL111      0.1328
     29 H         119.1099  154.1143  148.4147 H       1  UNL111      0.0756
     30 H         119.7085  151.9272  147.8209 H       1  UNL111      0.1599
     31 H         118.5161  156.4684  147.7750 H       1  UNL111      0.0858
     32 H         118.1874  153.6532  144.6597 H       1  UNL111      0.0547
     33 H         119.8440  153.3301  144.1989 H       1  UNL111      0.0547
     34 H         120.7689  156.2431  148.4559 H       1  UNL111      0.0615
     35 H         120.9617  156.9876  146.8623 H       1  UNL111      0.0615
     36 H         120.4540  155.6763  144.5826 H       1  UNL111      0.0738
     37 H         118.9591  155.6593  143.6513 H       1  UNL111      0.0738
     38 H         116.5336  154.3444  147.7679 H       1  UNL111      0.1064
     39 H         123.4962  155.7920  147.4442 H       1  UNL111      0.0939
     40 H         116.7767  155.4223  145.3712 H       1  UNL111      0.0667
     41 H         117.1418  156.9464  144.5053 H       1  UNL111      0.0667
     42 H         116.8452  156.9861  146.2668 H       1  UNL111      0.0667
     43 H         124.7610  153.7609  146.9468 H       1  UNL111      0.1142
     44 H         118.1731  150.2610  143.3240 H       1  UNL111      0.0856
     45 H         118.2794  149.3110  144.8105 H       1  UNL111      0.0856
     46 H         119.6056  150.4235  144.3379 H       1  UNL111      0.0856
     47 H         117.7620  149.0565  148.7270 H       1  UNL111      0.0856
     48 H         117.9405  150.7954  149.0161 H       1  UNL111      0.0856
     49 H         119.3220  149.8182  148.4036 H       1  UNL111      0.0856
     50 H         125.3825  150.2524  146.0930 H       1  UNL111      0.1074
     51 H         125.3994  151.5043  147.3419 H       1  UNL111      0.1074
     52 H         125.5240  151.9431  145.5941 H       1  UNL111      0.1074
@<TRIPOS>UNITY_ATOM_ATTR
6 1
charge 1
@<TRIPOS>BOND
     1     1     9    1
     2     1    18    1
     3     2    14    1
     4     2    24    1
     5     3    14    1
     6     3    25    1
     7     4    19    1
     8     5    22    1
     9     5    26    1
    10     6    10    1
    11     6    15    1
    12     6    21    1
    13     7     8    1
    14     7     9    1
    15     7    11    1
    16     7    12    1
    17     8    10    1
    18     8    17    1
    19     9    14    1
    20    10    13    1
    21    11    15    1
    22    12    16   ar
    23    12    18   ar
    24    13    16    1
    25    14    19    1
    26    16    20   ar
    27    17    19    2
    28    18    22   ar
    29    20    23   ar
    30    22    23   ar
    31     4    27    1
    32     6    28    1
    33     8    29    1
    34     9    30    1
    35    10    31    1
    36    11    32    1
    37    11    33    1
    38    13    34    1
    39    13    35    1
    40    15    36    1
    41    15    37    1
    42    17    38    1
    43    20    39    1
    44    21    40    1
    45    21    41    1
    46    21    42    1
    47    23    43    1
    48    24    44    1
    49    24    45    1
    50    24    46    1
    51    25    47    1
    52    25    48    1
    53    25    49    1
    54    26    50    1
    55    26    51    1
    56    26    52    1
@<TRIPOS>MOLECULE
5491691
 44 48 0 0 0
SMALL
GASTEIGER

@<TRIPOS>ATOM
      1 P         117.2261  154.6928  148.0911 P.3     1  UNL111     -0.0117
      2 O         119.0430  151.3092  147.0672 O.2     1  UNL111     -0.5435
      3 O         119.6944  149.6661  145.0409 O.3     1  UNL111     -0.4348
      4 O         116.9940  153.4525  146.9920 O.2     1  UNL111     -0.5477
      5 O         116.8866  155.9619  147.3164 O.co2   1  UNL111     -0.5141
      6 O         116.2744  154.3605  149.2278 O.co2   1  UNL111     -0.5141
      7 O         118.7052  154.6381  148.4982 O.2     1  UNL111     -0.6161
      8 N         122.8225  154.6390  147.0891 N.4     1  UNL111      0.4275
      9 C         121.2269  152.2385  146.8559 C.3     1  UNL111      0.0533
     10 C         122.6296  152.2490  146.2700 C.3     1  UNL111     -0.0026
     11 C         122.8882  153.7305  145.8229 C.3     1  UNL111     -0.0206
     12 C         120.4646  150.9302  147.0481 C.3     1  UNL111      0.0902
     13 C         121.2535  153.0506  148.1734 C.3     1  UNL111     -0.0259
     14 C         120.2510  152.8483  145.9003 C.3     1  UNL111      0.0237
     15 C         121.9274  154.2046  144.6941 C.3     1  UNL111     -0.0213
     16 C         121.5141  154.5243  147.9110 C.3     1  UNL111     -0.0364
     17 C         120.5023  153.8699  144.9949 C.3     1  UNL111     -0.0425
     18 C         120.7682  149.8587  145.9590 C.3     1  UNL111      0.0605
     19 C         122.8166  151.1792  145.2260 C.2     1  UNL111     -0.0869
     20 C         118.9974  152.4438  146.2854 C.3     1  UNL111      0.1076
     21 C         121.9922  150.1230  145.1135 C.2     1  UNL111     -0.0672
     22 C         119.4022  154.5655  144.5053 C.3     1  UNL111     -0.0568
     23 C         123.1023  156.0892  146.8309 C.3     1  UNL111     -0.0442
     24 C         117.9717  153.3156  146.0416 C.3     1  UNL111      0.0989
     25 C         118.1427  154.3262  145.0812 C.3     1  UNL111     -0.0115
     26 H         118.9002  150.0581  145.4610 H       1  UNL111      0.2424
     27 H         123.5483  154.3098  147.7314 H       1  UNL111      0.1328
     28 H         123.3622  152.0067  147.0537 H       1  UNL111      0.0720
     29 H         123.9225  153.8272  145.4702 H       1  UNL111      0.0854
     30 H         120.7040  150.4967  148.0279 H       1  UNL111      0.1417
     31 H         122.0374  152.6497  148.8308 H       1  UNL111      0.0544
     32 H         120.3294  152.9313  148.7469 H       1  UNL111      0.0544
     33 H         122.2002  153.6948  143.7615 H       1  UNL111      0.0615
     34 H         122.0400  155.2767  144.5066 H       1  UNL111      0.0615
     35 H         120.7416  155.0496  147.3496 H       1  UNL111      0.0738
     36 H         121.6933  155.0562  148.8517 H       1  UNL111      0.0738
     37 H         120.9107  148.8970  146.4658 H       1  UNL111      0.1221
     38 H         123.6727  151.2489  144.5593 H       1  UNL111      0.0812
     39 H         122.1848  149.3800  144.3416 H       1  UNL111      0.0909
     40 H         119.5126  155.4062  143.8280 H       1  UNL111      0.0940
     41 H         122.2541  156.5402  146.3111 H       1  UNL111      0.0667
     42 H         124.0139  156.1561  146.2317 H       1  UNL111      0.0667
     43 H         123.2610  156.5774  147.7965 H       1  UNL111      0.0667
     44 H         117.3289  155.0341  144.9259 H       1  UNL111      0.1145
@<TRIPOS>UNITY_ATOM_ATTR
5 1
charge -1
6 1
charge -1
8 1
charge 1
@<TRIPOS>BOND
     1     1     4    1
     2     1     5    1
     3     1     6    1
     4     1     7    2
     5     2    12    1
     6     2    20    1
     7     3    18    1
     8     4    24    1
     9     8    11    1
    10     8    16    1
    11     8    23    1
    12     9    10    1
    13     9    12    1
    14     9    13    1
    15     9    14    1
    16    10    11    1
    17    10    19    1
    18    11    15    1
    19    12    18    1
    20    13    16    1
    21    14    17   ar
    22    14    20   ar
    23    15    17    1
    24    17    22   ar
    25    18    21    1
    26    19    21    2
    27    20    24   ar
    28    22    25   ar
    29    24    25   ar
    30     3    26    1
    31     8    27    1
    32    10    28    1
    33    11    29    1
    34    12    30    1
    35    13    31    1
    36    13    32    1
    37    15    33    1
    38    15    34    1
    39    16    35    1
    40    16    36    1
    41    18    37    1
    42    19    38    1
    43    21    39    1
    44    22    40    1
    45    23    41    1
    46    23    42    1
    47    23    43    1
    48    25    44    1
@<TRIPOS>MOLECULE
6429432
 49 53 0 0 0
SMALL
GASTEIGER

@<TRIPOS>ATOM
      1 O         118.7891  151.9223  147.0222 O.2     1  UNL111     -0.5430
      2 O         119.1690  150.1448  145.1323 O.3     1  UNL111     -0.4348
      3 O         116.6507  153.4866  145.7260 O.3     1  UNL111     -0.4563
      4 O         116.8641  154.5542  147.7984 O.2     1  UNL111     -0.3367
      5 N         123.3109  154.4040  147.2094 N.4     1  UNL111      0.4275
      6 C         121.1321  152.4972  146.9415 C.3     1  UNL111      0.0533
      7 C         122.5081  152.2127  146.3328 C.3     1  UNL111     -0.0026
      8 C         123.0977  153.5923  145.9042 C.3     1  UNL111     -0.0206
      9 C         120.1377  151.3281  147.0919 C.3     1  UNL111      0.0903
     10 C         121.3213  153.2943  148.2535 C.3     1  UNL111     -0.0259
     11 C         120.2977  153.3154  146.0180 C.3     1  UNL111      0.0244
     12 C         122.2261  154.3578  144.8592 C.3     1  UNL111     -0.0213
     13 C         122.0605  154.6159  148.0397 C.3     1  UNL111     -0.0364
     14 C         120.7468  154.2463  145.0995 C.3     1  UNL111     -0.0423
     15 C         120.2783  150.1933  146.0261 C.3     1  UNL111      0.0605
     16 C         122.4843  151.1666  145.2580 C.2     1  UNL111     -0.0869
     17 C         118.9659  153.0078  146.1946 C.3     1  UNL111      0.1138
     18 C         121.4948  150.2683  145.1492 C.2     1  UNL111     -0.0672
     19 C         124.0655  155.6925  147.0083 C.3     1  UNL111     -0.0442
     20 C         119.7756  154.9502  144.3828 C.3     1  UNL111     -0.0561
     21 C         118.0014  153.7378  145.5393 C.3     1  UNL111      0.1320
     22 C         118.4043  154.7094  144.6159 C.3     1  UNL111     -0.0054
     23 C         116.2102  153.9318  146.9687 C.2     1  UNL111      0.2291
     24 C         114.7686  153.5323  147.1562 C.3     1  UNL111      0.0596
     25 C         114.6535  152.0553  147.4765 C.3     1  UNL111     -0.0378
     26 H         118.3883  150.4566  145.6273 H       1  UNL111      0.2424
     27 H         123.9377  153.8298  147.7896 H       1  UNL111      0.1328
     28 H         123.1643  151.7943  147.1108 H       1  UNL111      0.0720
     29 H         124.1067  153.4540  145.4960 H       1  UNL111      0.0854
     30 H         120.2442  150.8764  148.0865 H       1  UNL111      0.1417
     31 H         121.8855  152.6786  148.9666 H       1  UNL111      0.0544
     32 H         120.3595  153.5107  148.7365 H       1  UNL111      0.0544
     33 H         122.4245  153.9153  143.8741 H       1  UNL111      0.0615
     34 H         122.5145  155.4109  144.7951 H       1  UNL111      0.0615
     35 H         121.4432  155.3658  147.5352 H       1  UNL111      0.0738
     36 H         122.3825  155.0281  149.0024 H       1  UNL111      0.0738
     37 H         120.2962  149.2318  146.5524 H       1  UNL111      0.1221
     38 H         123.3271  151.0952  144.5719 H       1  UNL111      0.0812
     39 H         121.5482  149.5154  144.3626 H       1  UNL111      0.0909
     40 H         123.4108  156.4216  146.5262 H       1  UNL111      0.0667
     41 H         124.9456  155.4812  146.3962 H       1  UNL111      0.0667
     42 H         124.3755  156.0524  147.9932 H       1  UNL111      0.0667
     43 H         120.0599  155.6814  143.6282 H       1  UNL111      0.0940
     44 H         117.6563  155.2674  144.0571 H       1  UNL111      0.1154
     45 H         114.2037  153.7895  146.2538 H       1  UNL111      0.0846
     46 H         114.3511  154.1306  147.9735 H       1  UNL111      0.0846
     47 H         115.0352  151.4410  146.6542 H       1  UNL111      0.0335
     48 H         113.6082  151.7823  147.6498 H       1  UNL111      0.0335
     49 H         115.2289  151.8028  148.3733 H       1  UNL111      0.0335
@<TRIPOS>UNITY_ATOM_ATTR
5 1
charge 1
@<TRIPOS>BOND
     1     1     9    1
     2     1    17    1
     3     2    15    1
     4     3    21    1
     5     3    23    1
     6     4    23    2
     7     5     8    1
     8     5    13    1
     9     5    19    1
    10     6     7    1
    11     6     9    1
    12     6    10    1
    13     6    11    1
    14     7     8    1
    15     7    16    1
    16     8    12    1
    17     9    15    1
    18    10    13    1
    19    11    14   ar
    20    11    17   ar
    21    12    14    1
    22    14    20   ar
    23    15    18    1
    24    16    18    2
    25    17    21   ar
    26    20    22   ar
    27    21    22   ar
    28    23    24    1
    29    24    25    1
    30     2    26    1
    31     5    27    1
    32     7    28    1
    33     8    29    1
    34     9    30    1
    35    10    31    1
    36    10    32    1
    37    12    33    1
    38    12    34    1
    39    13    35    1
    40    13    36    1
    41    15    37    1
    42    16    38    1
    43    18    39    1
    44    19    40    1
    45    19    41    1
    46    19    42    1
    47    20    43    1
    48    22    44    1
    49    24    45    1
    50    24    46    1
    51    25    47    1
    52    25    48    1
    53    25    49    1
@<TRIPOS>MOLECULE
10860472
 48 52 0 0 0
SMALL
GASTEIGER

@<TRIPOS>ATOM
      1 O         118.9217  151.9603  147.6414 O.3     1  UNL111     -0.5435
      2 O         118.9737  150.2441  145.6501 O.3     1  UNL111     -0.4348
      3 O         116.6374  153.3244  146.7049 O.3     1  UNL111     -0.5317
      4 O         114.2856  153.3918  146.6244 O.3     1  UNL111     -0.4214
      5 N         123.4223  154.4212  147.1002 N.4     1  UNL111      0.4275
      6 C         121.2136  152.5308  147.1762 C.3     1  UNL111      0.0533
      7 C         122.4711  152.2462  146.3486 C.3     1  UNL111     -0.0026
      8 C         122.9888  153.6263  145.8400 C.3     1  UNL111     -0.0206
      9 C         120.2545  151.3602  147.4701 C.3     1  UNL111      0.0902
     10 C         121.6216  153.3112  148.4472 C.3     1  UNL111     -0.0259
     11 C         120.2413  153.3631  146.4133 C.ar    1  UNL111      0.0238
     12 C         121.9592  154.4081  144.9639 C.3     1  UNL111     -0.0213
     13 C         122.3297  154.6294  148.1281 C.3     1  UNL111     -0.0364
     14 C         120.5380  154.2907  145.4374 C.ar    1  UNL111     -0.0425
     15 C         120.2016  150.2462  146.3736 C.3     1  UNL111      0.0605
     16 C         122.2754  151.2066  145.2861 C.2     1  UNL111     -0.0869
     17 C         118.9491  153.0447  146.7858 C.ar    1  UNL111      0.1088
     18 C         121.2749  150.3153  145.3257 C.2     1  UNL111     -0.0672
     19 C         119.4597  154.9777  144.8810 C.ar    1  UNL111     -0.0568
     20 C         124.1458  155.7060  146.7900 C.3     1  UNL111     -0.0442
     21 C         117.8626  153.7154  146.2599 C.ar    1  UNL111      0.1061
     22 C         118.1352  154.7058  145.3042 C.ar    1  UNL111     -0.0103
     23 C         115.4993  153.9458  146.1165 C.3     1  UNL111      0.1066
     24 C         114.1040  153.6786  148.0036 C.3     1  UNL111      0.0109
     25 H         118.2767  150.5556  146.2598 H       1  UNL111      0.2424
     26 H         124.1324  153.8351  147.5607 H       1  UNL111      0.1328
     27 H         123.2428  151.8207  147.0079 H       1  UNL111      0.0720
     28 H         123.9146  153.4885  145.2676 H       1  UNL111      0.0854
     29 H         120.5285  150.8883  148.4223 H       1  UNL111      0.1417
     30 H         122.2884  152.6833  149.0529 H       1  UNL111      0.0544
     31 H         120.7534  153.5300  149.0824 H       1  UNL111      0.0544
     32 H         121.9953  153.9814  143.9529 H       1  UNL111      0.0615
     33 H         122.2341  155.4626  144.8707 H       1  UNL111      0.0615
     34 H         121.6438  155.3897  147.7414 H       1  UNL111      0.0738
     35 H         122.8097  155.0273  149.0290 H       1  UNL111      0.0738
     36 H         120.2708  149.2729  146.8729 H       1  UNL111      0.1221
     37 H         123.0035  151.1320  144.4796 H       1  UNL111      0.0812
     38 H         121.2014  149.5666  144.5366 H       1  UNL111      0.0909
     39 H         119.6163  155.7121  144.0922 H       1  UNL111      0.0940
     40 H         123.4276  156.4452  146.4293 H       1  UNL111      0.0667
     41 H         124.9114  155.4946  146.0396 H       1  UNL111      0.0667
     42 H         124.6166  156.0527  147.7140 H       1  UNL111      0.0667
     43 H         117.3349  155.2672  144.8286 H       1  UNL111      0.1145
     44 H         115.4935  153.7602  145.0366 H       1  UNL111      0.1737
     45 H         115.5029  155.0276  146.2992 H       1  UNL111      0.1737
     46 H         113.1405  153.2663  148.3155 H       1  UNL111      0.0850
     47 H         114.0908  154.7594  148.1749 H       1  UNL111      0.0850
     48 H         114.8895  153.2110  148.6048 H       1  UNL111      0.0850
@<TRIPOS>UNITY_ATOM_ATTR
5 1
charge 1
@<TRIPOS>BOND
     1     1     9    1
     2     1    17    1
     3     2    15    1
     4     3    21    1
     5     3    23    1
     6     4    23    1
     7     4    24    1
     8     5     8    1
     9     5    13    1
    10     5    20    1
    11     6     7    1
    12     6     9    1
    13     6    10    1
    14     6    11    1
    15     7     8    1
    16     7    16    1
    17     8    12    1
    18     9    15    1
    19    10    13    1
    20    11    14   ar
    21    11    17   ar
    22    12    14    1
    23    14    19   ar
    24    15    18    1
    25    16    18    2
    26    17    21   ar
    27    19    22   ar
    28    21    22   ar
    29     2    25    1
    30     5    26    1
    31     7    27    1
    32     8    28    1
    33     9    29    1
    34    10    30    1
    35    10    31    1
    36    12    32    1
    37    12    33    1
    38    13    34    1
    39    13    35    1
    40    15    36    1
    41    16    37    1
    42    18    38    1
    43    19    39    1
    44    20    40    1
    45    20    41    1
    46    20    42    1
    47    22    43    1
    48    23    44    1
    49    23    45    1
    50    24    46    1
    51    24    47    1
    52    24    48    1
@<TRIPOS>MOLECULE
124037291
 61 65 0 0 0
SMALL
GASTEIGER

@<TRIPOS>ATOM
      1 O         119.1395  150.9338  144.5925 O.3     1  UNL111     -0.5435
      2 O         116.7347  152.2124  148.3603 O.3     1  UNL111     -0.4361
      3 O         120.9685  151.1780  146.6452 O.3     1  UNL111     -0.4410
      4 O         120.9710  152.0374  142.5934 O.3     1  UNL111     -0.5485
      5 O         123.3346  152.6932  147.3569 O.3     1  UNL111     -0.4504
      6 O         123.0668  155.6856  147.3702 O.3     1  UNL111     -0.4625
      7 N         116.3537  154.4512  147.1251 N.4     1  UNL111      0.4300
      8 C         118.0186  152.2477  146.2801 C.3     1  UNL111      0.0718
      9 C         117.9672  152.7023  147.7488 C.3     1  UNL111      0.0452
     10 C         118.6330  150.8639  145.9766 C.3     1  UNL111      0.0926
     11 C         117.7854  154.2564  147.7106 C.3     1  UNL111      0.0007
     12 C         116.6337  152.4625  145.6142 C.3     1  UNL111     -0.0197
     13 C         118.9940  153.0406  145.4848 C.ar    1  UNL111      0.0304
     14 C         119.1396  152.2221  148.6076 C.3     1  UNL111     -0.0143
     15 C         119.7877  150.4309  146.9437 C.3     1  UNL111      0.0503
     16 C         118.8690  155.0503  146.9300 C.3     1  UNL111     -0.0148
     17 C         119.4038  150.7194  148.3977 C.3     1  UNL111     -0.0148
     18 C         116.1514  153.9150  145.7276 C.3     1  UNL111     -0.0337
     19 C         119.3720  154.3504  145.7012 C.ar    1  UNL111     -0.0397
     20 C         119.5303  152.2530  144.4834 C.ar    1  UNL111      0.1065
     21 C         115.7843  155.8192  147.3178 C.3     1  UNL111     -0.0427
     22 C         120.2906  154.8971  144.8023 C.ar    1  UNL111     -0.0569
     23 C         120.4204  152.7859  143.5840 C.ar    1  UNL111      0.0919
     24 C         120.7952  154.1219  143.7339 C.ar    1  UNL111     -0.0140
     25 C         122.1991  150.5791  147.0533 C.3     1  UNL111      0.0283
     26 C         123.3400  151.4822  146.5878 C.3     1  UNL111      0.0262
     27 C         124.2634  153.6429  146.8198 C.3     1  UNL111      0.0254
     28 C         124.2490  154.9229  147.6542 C.3     1  UNL111      0.0227
     29 C         123.0975  156.9416  148.0358 C.3     1  UNL111     -0.0027
     30 H         116.9013  151.3579  148.8022 H       1  UNL111      0.2435
     31 H         120.6354  151.1301  142.7177 H       1  UNL111      0.3393
     32 H         115.8044  153.8117  147.7301 H       1  UNL111      0.1349
     33 H         117.8509  150.0950  146.0089 H       1  UNL111      0.1416
     34 H         117.7085  154.6434  148.7344 H       1  UNL111      0.0967
     35 H         115.8940  151.7976  146.0786 H       1  UNL111      0.0561
     36 H         116.6449  152.1858  144.5516 H       1  UNL111      0.0561
     37 H         118.9139  152.3860  149.6686 H       1  UNL111      0.0524
     38 H         120.0486  152.7923  148.3860 H       1  UNL111      0.0524
     39 H         119.9890  149.3647  146.7856 H       1  UNL111      0.1139
     40 H         119.7286  155.1860  147.5989 H       1  UNL111      0.0633
     41 H         118.5077  156.0490  146.6654 H       1  UNL111      0.0633
     42 H         118.5300  150.1208  148.6758 H       1  UNL111      0.0503
     43 H         120.2121  150.4208  149.0737 H       1  UNL111      0.0503
     44 H         116.6710  154.5845  145.0350 H       1  UNL111      0.0743
     45 H         115.0781  153.9682  145.5136 H       1  UNL111      0.0743
     46 H         116.2903  156.5136  146.6439 H       1  UNL111      0.0670
     47 H         115.9263  156.1081  148.3620 H       1  UNL111      0.0670
     48 H         114.7159  155.7741  147.0894 H       1  UNL111      0.0670
     49 H         120.6592  155.9132  144.9323 H       1  UNL111      0.0939
     50 H         121.5203  154.5549  143.0488 H       1  UNL111      0.1139
     51 H         122.2929  149.5939  146.5851 H       1  UNL111      0.1002
     52 H         122.2201  150.4777  148.1422 H       1  UNL111      0.1002
     53 H         124.3000  150.9765  146.7362 H       1  UNL111      0.0998
     54 H         123.2103  151.7236  145.5263 H       1  UNL111      0.0998
     55 H         123.9895  153.8687  145.7830 H       1  UNL111      0.0997
     56 H         125.2666  153.2030  146.8488 H       1  UNL111      0.0997
     57 H         124.2663  154.6825  148.7231 H       1  UNL111      0.0991
     58 H         125.1284  155.5246  147.3978 H       1  UNL111      0.0991
     59 H         122.1771  157.4801  147.7946 H       1  UNL111      0.0817
     60 H         123.9491  157.5370  147.6922 H       1  UNL111      0.0817
     61 H         123.1478  156.8004  149.1196 H       1  UNL111      0.0817
@<TRIPOS>UNITY_ATOM_ATTR
7 1
charge 1
@<TRIPOS>BOND
     1     1    10    1
     2     1    20    1
     3     2     9    1
     4     3    15    1
     5     3    25    1
     6     4    23    1
     7     5    26    1
     8     5    27    1
     9     6    28    1
    10     6    29    1
    11     7    11    1
    12     7    18    1
    13     7    21    1
    14     8     9    1
    15     8    10    1
    16     8    12    1
    17     8    13    1
    18     9    11    1
    19     9    14    1
    20    10    15    1
    21    11    16    1
    22    12    18    1
    23    13    19   ar
    24    13    20   ar
    25    14    17    1
    26    15    17    1
    27    16    19    1
    28    19    22   ar
    29    20    23   ar
    30    22    24   ar
    31    23    24   ar
    32    25    26    1
    33    27    28    1
    34     2    30    1
    35     4    31    1
    36     7    32    1
    37    10    33    1
    38    11    34    1
    39    12    35    1
    40    12    36    1
    41    14    37    1
    42    14    38    1
    43    15    39    1
    44    16    40    1
    45    16    41    1
    46    17    42    1
    47    17    43    1
    48    18    44    1
    49    18    45    1
    50    21    46    1
    51    21    47    1
    52    21    48    1
    53    22    49    1
    54    24    50    1
    55    25    51    1
    56    25    52    1
    57    26    53    1
    58    26    54    1
    59    27    55    1
    60    27    56    1
    61    28    57    1
    62    28    58    1
    63    29    59    1
    64    29    60    1
    65    29    61    1
@<TRIPOS>MOLECULE
129670507
 39 42 0 0 0
SMALL
GASTEIGER

@<TRIPOS>ATOM
      1 O         115.2160  152.5806  147.1331 O.2     1  UNL111     -0.4139
      2 N         120.8426  150.4534  145.6771 N.4     1  UNL111      0.4331
      3 C         121.2364  153.3184  145.8539 C.3     1  UNL111      0.0025
      4 C         121.6573  152.3560  146.9987 C.3     1  UNL111     -0.0280
      5 C         120.7049  151.1713  147.0061 C.3     1  UNL111     -0.0221
      6 C         121.4526  152.5637  144.5170 C.3     1  UNL111     -0.0369
      7 C         121.7529  153.0807  148.3532 C.3     1  UNL111     -0.0457
      8 C         119.7412  153.6967  145.9450 C.3     1  UNL111     -0.0527
      9 C         119.2508  151.5774  147.2765 C.3     1  UNL111     -0.0205
     10 C         120.6462  151.2724  144.4397 C.3     1  UNL111     -0.0337
     11 C         118.8042  152.8608  146.6086 C.3     1  UNL111     -0.0377
     12 C         122.1425  154.5398  145.9080 C.2     1  UNL111     -0.0965
     13 C         122.8145  154.1831  148.3025 C.3     1  UNL111     -0.0448
     14 C         122.8419  154.9114  146.9922 C.2     1  UNL111     -0.1118
     15 C         119.2666  154.8505  145.2874 C.3     1  UNL111     -0.0759
     16 C         117.4400  153.2418  146.6380 C.3     1  UNL111      0.0173
     17 C         117.9171  155.1968  145.3056 C.3     1  UNL111     -0.0791
     18 C         117.0059  154.3967  145.9807 C.3     1  UNL111     -0.0566
     19 C         116.4121  152.4456  147.3542 C.2     1  UNL111      0.1117
     20 H         120.1966  149.6510  145.6468 H       1  UNL111      0.1365
     21 H         121.7827  150.0323  145.6346 H       1  UNL111      0.1365
     22 H         122.6671  151.9682  146.7867 H       1  UNL111      0.0604
     23 H         121.0134  150.4276  147.7499 H       1  UNL111      0.0834
     24 H         122.5180  152.3219  144.3963 H       1  UNL111      0.0526
     25 H         121.1870  153.1956  143.6591 H       1  UNL111      0.0526
     26 H         122.0067  152.3699  149.1487 H       1  UNL111      0.0391
     27 H         120.7912  153.5276  148.6313 H       1  UNL111      0.0391
     28 H         119.1317  151.7130  148.3592 H       1  UNL111      0.0617
     29 H         118.5915  150.7547  146.9732 H       1  UNL111      0.0617
     30 H         119.5721  151.4459  144.3271 H       1  UNL111      0.0736
     31 H         120.9763  150.6535  143.5993 H       1  UNL111      0.0736
     32 H         122.2378  155.1493  145.0094 H       1  UNL111      0.0793
     33 H         123.8051  153.7431  148.4692 H       1  UNL111      0.0424
     34 H         122.6382  154.8941  149.1173 H       1  UNL111      0.0424
     35 H         123.4753  155.7965  146.9407 H       1  UNL111      0.0734
     36 H         119.9425  155.5094  144.7440 H       1  UNL111      0.0903
     37 H         117.5763  156.0975  144.7980 H       1  UNL111      0.0886
     38 H         115.9543  154.6827  145.9987 H       1  UNL111      0.0951
     39 H         116.7628  151.7092  148.0931 H       1  UNL111      0.2085
@<TRIPOS>UNITY_ATOM_ATTR
2 1
charge 1
@<TRIPOS>BOND
     1     1    19    2
     2     2     5    1
     3     2    10    1
     4     3     4    1
     5     3     6    1
     6     3     8    1
     7     3    12    1
     8     4     5    1
     9     4     7    1
    10     5     9    1
    11     6    10    1
    12     7    13    1
    13     8    11   ar
    14     8    15   ar
    15     9    11    1
    16    11    16   ar
    17    12    14    2
    18    13    14    1
    19    15    17   ar
    20    16    18   ar
    21    16    19    1
    22    17    18   ar
    23     2    20    1
    24     2    21    1
    25     4    22    1
    26     5    23    1
    27     6    24    1
    28     6    25    1
    29     7    26    1
    30     7    27    1
    31     9    28    1
    32     9    29    1
    33    10    30    1
    34    10    31    1
    35    12    32    1
    36    13    33    1
    37    13    34    1
    38    14    35    1
    39    15    36    1
    40    17    37    1
    41    18    38    1
    42    19    39    1
@<TRIPOS>MOLECULE
129780007
 55 60 0 0 0
SMALL
GASTEIGER

@<TRIPOS>ATOM
      1 CL        127.6386  152.8546  146.5711 Cl      1  UNL111     -0.1312
      2 O         119.6891  154.0836  148.0128 O.2     1  UNL111     -0.5517
      3 O         120.3250  156.0066  146.3143 O.3     1  UNL111     -0.4349
      4 O         121.3059  151.7065  148.1990 O.3     1  UNL111     -0.4046
      5 O         121.2042  153.6460  145.1400 O.2     1  UNL111     -0.3880
      6 N         114.8971  152.5061  146.7634 N.4     1  UNL111      0.4274
      7 C         117.4420  153.8552  147.1744 C.3     1  UNL111      0.0508
      8 C         116.4894  154.2816  146.0466 C.3     1  UNL111     -0.0030
      9 C         115.7530  152.9955  145.5728 C.3     1  UNL111     -0.0209
     10 C         118.5250  154.8822  147.6038 C.3     1  UNL111      0.0874
     11 C         118.3446  152.7601  146.7205 C.2     1  UNL111      0.0136
     12 C         116.6055  153.3553  148.3748 C.3     1  UNL111     -0.0262
     13 C         116.7127  151.8959  145.0294 C.3     1  UNL111     -0.0232
     14 C         118.0195  151.7472  145.7673 C.2     1  UNL111     -0.0521
     15 C         115.6853  152.1899  148.0150 C.3     1  UNL111     -0.0364
     16 C         119.5546  152.9361  147.2334 C.2     1  UNL111      0.0869
     17 C         118.9192  155.9368  146.5190 C.3     1  UNL111      0.0600
     18 C         117.1737  155.0405  144.9455 C.2     1  UNL111     -0.0869
     19 C         120.7412  152.0567  146.9426 C.3     1  UNL111      0.1610
     20 C         118.2650  155.7832  145.1758 C.2     1  UNL111     -0.0672
     21 C         118.9260  150.7815  145.5323 C.2     1  UNL111     -0.0809
     22 C         120.2993  150.7533  146.1983 C.3     1  UNL111      0.0219
     23 C         113.9399  151.3978  146.4098 C.3     1  UNL111     -0.0442
     24 C         121.6602  152.8939  146.0089 C.2     1  UNL111      0.1703
     25 C         123.1410  152.8344  146.1644 C.3     1  UNL111      0.0314
     26 C         123.8089  151.6947  146.6244 C.3     1  UNL111     -0.0464
     27 C         123.8806  153.9751  145.8142 C.3     1  UNL111     -0.0464
     28 C         125.2029  151.7049  146.7488 C.3     1  UNL111     -0.0458
     29 C         125.2715  153.9830  145.9413 C.3     1  UNL111     -0.0458
     30 C         125.9271  152.8477  146.4101 C.3     1  UNL111      0.0171
     31 H         120.5848  155.2162  145.7943 H       1  UNL111      0.2424
     32 H         121.3485  152.5289  148.7246 H       1  UNL111      0.2527
     33 H         114.2868  153.2988  147.0065 H       1  UNL111      0.1328
     34 H         115.7351  154.9732  146.4505 H       1  UNL111      0.0719
     35 H         115.0261  153.2543  144.7924 H       1  UNL111      0.0854
     36 H         118.1992  155.4273  148.4988 H       1  UNL111      0.1410
     37 H         115.9969  154.1866  148.7555 H       1  UNL111      0.0544
     38 H         117.2505  153.0472  149.2080 H       1  UNL111      0.0544
     39 H         116.9613  152.1727  143.9952 H       1  UNL111      0.0612
     40 H         116.2055  150.9280  144.9659 H       1  UNL111      0.0612
     41 H         116.2325  151.2576  147.8448 H       1  UNL111      0.0738
     42 H         114.9586  152.0213  148.8175 H       1  UNL111      0.0738
     43 H         118.6206  156.9223  146.8970 H       1  UNL111      0.1220
     44 H         116.7462  155.0385  143.9442 H       1  UNL111      0.0812
     45 H         118.7048  156.3555  144.3593 H       1  UNL111      0.0909
     46 H         118.7281  149.9986  144.8031 H       1  UNL111      0.0813
     47 H         120.3081  149.9048  146.8951 H       1  UNL111      0.0672
     48 H         121.0340  150.5101  145.4198 H       1  UNL111      0.0672
     49 H         114.4981  150.4689  146.2764 H       1  UNL111      0.0667
     50 H         113.4122  151.6808  145.4956 H       1  UNL111      0.0667
     51 H         113.2277  151.2997  147.2337 H       1  UNL111      0.0667
     52 H         123.2739  150.7869  146.8894 H       1  UNL111      0.0970
     53 H         123.3783  154.8695  145.4477 H       1  UNL111      0.0970
     54 H         125.7193  150.8185  147.1105 H       1  UNL111      0.0996
     55 H         125.8330  154.8750  145.6740 H       1  UNL111      0.0996
@<TRIPOS>UNITY_ATOM_ATTR
6 1
charge 1
@<TRIPOS>BOND
     1     1    30    1
     2     2    10    1
     3     2    16    1
     4     3    17    1
     5     4    19    1
     6     5    24    2
     7     6     9    1
     8     6    15    1
     9     6    23    1
    10     7     8    1
    11     7    10    1
    12     7    11    1
    13     7    12    1
    14     8     9    1
    15     8    18    1
    16     9    13    1
    17    10    17    1
    18    11    14    1
    19    11    16    2
    20    12    15    1
    21    13    14    1
    22    14    21    2
    23    16    19    1
    24    17    20    1
    25    18    20    2
    26    19    22    1
    27    19    24    1
    28    21    22    1
    29    24    25    1
    30    25    26   ar
    31    25    27   ar
    32    26    28   ar
    33    27    29   ar
    34    28    30   ar
    35    29    30   ar
    36     3    31    1
    37     4    32    1
    38     6    33    1
    39     8    34    1
    40     9    35    1
    41    10    36    1
    42    12    37    1
    43    12    38    1
    44    13    39    1
    45    13    40    1
    46    15    41    1
    47    15    42    1
    48    17    43    1
    49    18    44    1
    50    20    45    1
    51    21    46    1
    52    22    47    1
    53    22    48    1
    54    23    49    1
    55    23    50    1
    56    23    51    1
    57    26    52    1
    58    27    53    1
    59    28    54    1
    60    29    55    1
@<TRIPOS>MOLECULE
67771035
 55 60 0 0 0
SMALL
GASTEIGER

@<TRIPOS>ATOM
      1 CL        127.8120  152.8487  146.6001 Cl      1  UNL111     -0.1233
      2 O         119.6210  154.5129  147.9049 O.2     1  UNL111     -0.5517
      3 O         120.1417  156.2786  145.9992 O.3     1  UNL111     -0.4349
      4 O         121.3818  152.3347  148.5251 O.3     1  UNL111     -0.4045
      5 O         121.3744  153.8878  145.2937 O.2     1  UNL111     -0.3864
      6 N         115.0444  152.3384  146.7530 N.4     1  UNL111      0.4274
      7 C         117.4368  153.9692  147.0439 C.3     1  UNL111      0.0508
      8 C         116.4986  154.1475  145.8403 C.3     1  UNL111     -0.0030
      9 C         115.8982  152.7451  145.5298 C.3     1  UNL111     -0.0209
     10 C         118.4072  155.1389  147.3614 C.3     1  UNL111      0.0874
     11 C         118.4494  152.9104  146.7714 C.2     1  UNL111      0.0137
     12 C         116.5983  153.5623  148.2774 C.3     1  UNL111     -0.0262
     13 C         116.9743  151.6799  145.1676 C.3     1  UNL111     -0.0232
     14 C         118.2479  151.7444  145.9718 C.2     1  UNL111     -0.0521
     15 C         115.8044  152.2759  148.0593 C.3     1  UNL111     -0.0364
     16 C         119.6161  153.2606  147.2935 C.2     1  UNL111      0.0870
     17 C         118.7441  156.0741  146.1566 C.3     1  UNL111      0.0600
     18 C         117.1660  154.8061  144.6656 C.2     1  UNL111     -0.0869
     19 C         120.8751  152.4405  147.1995 C.3     1  UNL111      0.1623
     20 C         118.1785  155.6699  144.8251 C.2     1  UNL111     -0.0672
     21 C         119.2301  150.8271  145.9290 C.2     1  UNL111     -0.0809
     22 C         120.5629  151.0074  146.6498 C.3     1  UNL111      0.0221
     23 C         114.2162  151.0992  146.5315 C.3     1  UNL111     -0.0442
     24 C         121.8166  153.1816  146.2074 C.2     1  UNL111      0.1783
     25 C         123.3019  153.0527  146.3346 C.3     1  UNL111      0.0637
     26 C         124.0994  154.0215  145.7030 C.3     1  UNL111      0.0479
     27 C         123.9233  152.0135  147.0375 C.3     1  UNL111     -0.0462
     28 C         125.4935  153.9604  145.7850 C.3     1  UNL111     -0.0457
     29 C         125.3198  151.9537  147.1180 C.3     1  UNL111     -0.0784
     30 C         126.0982  152.9268  146.4941 C.3     1  UNL111     -0.0773
     31 H         120.5319  155.4365  145.6796 H       1  UNL111      0.2424
     32 H         121.3430  153.2325  148.9090 H       1  UNL111      0.2527
     33 H         114.3506  153.0907  146.8654 H       1  UNL111      0.1328
     34 H         115.6702  154.8155  146.1193 H       1  UNL111      0.0719
     35 H         115.1820  152.8271  144.7024 H       1  UNL111      0.0854
     36 H         118.0014  155.7639  148.1672 H       1  UNL111      0.1410
     37 H         115.9013  154.3760  148.5187 H       1  UNL111      0.0544
     38 H         117.2325  153.4352  149.1645 H       1  UNL111      0.0544
     39 H         117.2518  151.8505  144.1179 H       1  UNL111      0.0612
     40 H         116.5558  150.6691  145.2048 H       1  UNL111      0.0612
     41 H         116.4410  151.3860  148.0396 H       1  UNL111      0.0738
     42 H         115.0629  152.1505  148.8561 H       1  UNL111      0.0738
     43 H         118.3197  157.0606  146.3807 H       1  UNL111      0.1220
     44 H         116.7883  154.6247  143.6606 H       1  UNL111      0.0812
     45 H         118.6069  156.1614  143.9520 H       1  UNL111      0.0909
     46 H         119.1270  149.9297  145.3225 H       1  UNL111      0.0813
     47 H         120.5935  150.2790  147.4707 H       1  UNL111      0.0672
     48 H         121.3498  150.7032  145.9479 H       1  UNL111      0.0672
     49 H         114.8684  150.2235  146.5450 H       1  UNL111      0.0667
     50 H         113.7019  151.1986  145.5725 H       1  UNL111      0.0667
     51 H         113.4838  151.0408  147.3414 H       1  UNL111      0.0667
     52 H         123.6415  154.8380  145.1459 H       1  UNL111      0.0970
     53 H         123.3537  151.2334  147.5341 H       1  UNL111      0.0997
     54 H         126.0969  154.7212  145.2955 H       1  UNL111      0.0885
     55 H         125.7943  151.1456  147.6702 H       1  UNL111      0.0890
@<TRIPOS>UNITY_ATOM_ATTR
6 1
charge 1
@<TRIPOS>BOND
     1     1    26    1
     2     2    10    1
     3     2    16    1
     4     3    17    1
     5     4    19    1
     6     5    24    2
     7     6     9    1
     8     6    15    1
     9     6    23    1
    10     7     8    1
    11     7    10    1
    12     7    11    1
    13     7    12    1
    14     8     9    1
    15     8    18    1
    16     9    13    1
    17    10    17    1
    18    11    14    1
    19    11    16    2
    20    12    15    1
    21    13    14    1
    22    14    21    2
    23    16    19    1
    24    17    20    1
    25    18    20    2
    26    19    22    1
    27    19    24    1
    28    21    22    1
    29    24    25    1
    30    25    26   ar
    31    25    27   ar
    32    26    28   ar
    33    27    29   ar
    34    28    30   ar
    35    29    30   ar
    36     3    31    1
    37     4    32    1
    38     6    33    1
    39     8    34    1
    40     9    35    1
    41    10    36    1
    42    12    37    1
    43    12    38    1
    44    13    39    1
    45    13    40    1
    46    15    41    1
    47    15    42    1
    48    17    43    1
    49    18    44    1
    50    20    45    1
    51    21    46    1
    52    22    47    1
    53    22    48    1
    54    23    49    1
    55    23    50    1
    56    23    51    1
    57    27    52    1
    58    28    53    1
    59    29    54    1
    60    30    55    1
@<TRIPOS>MOLECULE
129643963
 61 65 0 0 0
SMALL
GASTEIGER

@<TRIPOS>ATOM
      1 O         120.1640  153.2306  145.4866 O.2     1  UNL111     -0.5395
      2 O         119.2315  154.9486  147.2817 O.3     1  UNL111     -0.4930
      3 O         118.9117  150.6681  146.1037 O.2     1  UNL111     -0.5485
      4 O         118.6144  156.2122  145.4679 O.2     1  UNL111     -0.3223
      5 O         115.9823  156.0269  146.1787 O.3     1  UNL111     -0.4074
      6 O         117.3099  152.6940  146.9504 O.3     1  UNL111     -0.4279
      7 O         114.4768  153.6709  147.4117 O.3     1  UNL111     -0.4305
      8 O         115.2438  151.0593  146.8608 O.3     1  UNL111     -0.4212
      9 O         112.6093  150.9030  146.2042 O.2     1  UNL111     -0.4137
     10 N         125.3801  153.3521  145.7233 N.4     1  UNL111      0.4275
     11 C         122.5050  153.7538  145.8760 C.3     1  UNL111      0.0568
     12 C         123.4424  154.3547  146.9345 C.3     1  UNL111     -0.0012
     13 C         124.6434  153.3664  147.0846 C.3     1  UNL111     -0.0204
     14 C         121.0815  154.3509  145.7449 C.3     1  UNL111      0.1048
     15 C         123.2216  153.6688  144.5123 C.3     1  UNL111     -0.0252
     16 C         122.1139  152.3823  146.3177 C.3     1  UNL111      0.0241
     17 C         124.2331  151.9339  147.5452 C.3     1  UNL111     -0.0213
     18 C         124.5299  152.8835  144.5639 C.3     1  UNL111     -0.0363
     19 C         120.6071  155.2033  146.9617 C.3     1  UNL111      0.1133
     20 C         122.9002  151.4809  147.0173 C.3     1  UNL111     -0.0424
     21 C         122.7153  154.6614  148.2196 C.2     1  UNL111     -0.0822
     22 C         120.7905  152.1426  146.0289 C.3     1  UNL111      0.1061
     23 C         121.4217  155.0223  148.2198 C.2     1  UNL111     -0.0492
     24 C         126.7117  152.6461  145.7590 C.3     1  UNL111     -0.0442
     25 C         122.3415  150.2334  147.3081 C.3     1  UNL111     -0.0573
     26 C         120.2248  150.9262  146.3307 C.3     1  UNL111      0.0919
     27 C         121.0117  149.9504  146.9414 C.3     1  UNL111     -0.0140
     28 C         118.3335  155.4716  146.4066 C.2     1  UNL111      0.2650
     29 C         116.8987  155.0744  146.7434 C.3     1  UNL111      0.1623
     30 C         116.5925  153.6734  146.1829 C.3     1  UNL111      0.0943
     31 C         115.0655  153.3753  146.1361 C.3     1  UNL111      0.0831
     32 C         114.7773  151.9017  145.8022 C.3     1  UNL111      0.1095
     33 C         113.2896  151.6969  145.5584 C.2     1  UNL111      0.1152
     34 H         118.4387  151.5250  146.1998 H       1  UNL111      0.3393
     35 H         116.5092  156.6326  145.6158 H       1  UNL111      0.2499
     36 H         116.6418  152.0992  147.3696 H       1  UNL111      0.2426
     37 H         114.4165  154.6442  147.4817 H       1  UNL111      0.2421
     38 H         114.4577  150.8925  147.4258 H       1  UNL111      0.2457
     39 H         125.6194  154.3333  145.5247 H       1  UNL111      0.1328
     40 H         123.8357  155.3163  146.5739 H       1  UNL111      0.0721
     41 H         125.3736  153.7771  147.7929 H       1  UNL111      0.0854
     42 H         121.0220  154.9914  144.8553 H       1  UNL111      0.1477
     43 H         123.4341  154.6877  144.1619 H       1  UNL111      0.0545
     44 H         122.5742  153.2127  143.7519 H       1  UNL111      0.0545
     45 H         124.1506  151.9541  148.6401 H       1  UNL111      0.0615
     46 H         124.9994  151.1931  147.3011 H       1  UNL111      0.0615
     47 H         124.3704  151.8062  144.6728 H       1  UNL111      0.0738
     48 H         125.1094  153.0550  143.6500 H       1  UNL111      0.0738
     49 H         120.7230  156.2679  146.7115 H       1  UNL111      0.1533
     50 H         123.2512  154.6200  149.1662 H       1  UNL111      0.0821
     51 H         120.9312  155.2649  149.1613 H       1  UNL111      0.0975
     52 H         126.5479  151.5682  145.8163 H       1  UNL111      0.0667
     53 H         127.2687  153.0110  146.6254 H       1  UNL111      0.0667
     54 H         127.2462  152.9011  144.8397 H       1  UNL111      0.0667
     55 H         122.9036  149.4811  147.8583 H       1  UNL111      0.0939
     56 H         120.5695  148.9883  147.1919 H       1  UNL111      0.1139
     57 H         116.7820  155.1147  147.8319 H       1  UNL111      0.1634
     58 H         116.9749  153.5946  145.1576 H       1  UNL111      0.1291
     59 H         114.5817  154.0210  145.3932 H       1  UNL111      0.1259
     60 H         115.2999  151.6094  144.8853 H       1  UNL111      0.1397
     61 H         112.8506  152.2885  144.7375 H       1  UNL111      0.2080
@<TRIPOS>UNITY_ATOM_ATTR
10 1
charge 1
@<TRIPOS>BOND
     1     1    14    1
     2     1    22    1
     3     2    19    1
     4     2    28    1
     5     3    26    1
     6     4    28    2
     7     5    29    1
     8     6    30    1
     9     7    31    1
    10     8    32    1
    11     9    33    2
    12    10    13    1
    13    10    18    1
    14    10    24    1
    15    11    12    1
    16    11    14    1
    17    11    15    1
    18    11    16    1
    19    12    13    1
    20    12    21    1
    21    13    17    1
    22    14    19    1
    23    15    18    1
    24    16    20   ar
    25    16    22   ar
    26    17    20    1
    27    19    23    1
    28    20    25   ar
    29    21    23    2
    30    22    26   ar
    31    25    27   ar
    32    26    27   ar
    33    28    29    1
    34    29    30    1
    35    30    31    1
    36    31    32    1
    37    32    33    1
    38     3    34    1
    39     5    35    1
    40     6    36    1
    41     7    37    1
    42     8    38    1
    43    10    39    1
    44    12    40    1
    45    13    41    1
    46    14    42    1
    47    15    43    1
    48    15    44    1
    49    17    45    1
    50    17    46    1
    51    18    47    1
    52    18    48    1
    53    19    49    1
    54    21    50    1
    55    23    51    1
    56    24    52    1
    57    24    53    1
    58    24    54    1
    59    25    55    1
    60    27    56    1
    61    29    57    1
    62    30    58    1
    63    31    59    1
    64    32    60    1
    65    33    61    1
@<TRIPOS>MOLECULE
136409755
 60 65 0 0 0
SMALL
GASTEIGER

@<TRIPOS>ATOM
      1 O         117.4878  151.7205  144.7862 O.2     1  UNL111     -0.5368
      2 O         117.4871  150.3441  147.0325 O.3     1  UNL111     -0.4087
      3 O         120.3360  151.4887  144.2659 O.2     1  UNL111     -0.5394
      4 O         115.3638  148.9677  146.1142 O.2     1  UNL111     -0.4056
      5 O         128.8856  153.4521  147.8342 O.co2   1  UNL111     -0.5557
      6 O         128.9595  153.2952  145.5751 O.co2   1  UNL111     -0.5557
      7 N         116.0333  156.3893  146.4289 N.4     1  UNL111      0.4275
      8 N         122.0594  153.3288  145.5790 N.2     1  UNL111     -0.1995
      9 N         122.6013  152.9094  146.6248 N.2     1  UNL111     -0.2181
     10 C         116.4519  153.5409  145.9840 C.3     1  UNL111      0.0581
     11 C         115.8393  154.0557  147.2910 C.3     1  UNL111     -0.0012
     12 C         116.3241  152.0382  145.6433 C.3     1  UNL111      0.1120
     13 C         116.4931  155.4472  147.5731 C.3     1  UNL111     -0.0203
     14 C         115.9918  154.4606  144.8272 C.3     1  UNL111     -0.0252
     15 C         117.9386  153.5777  146.0395 C.3     1  UNL111      0.0281
     16 C         116.2702  151.0780  146.8870 C.3     1  UNL111      0.1393
     17 C         118.0452  155.4001  147.7196 C.3     1  UNL111     -0.0195
     18 C         116.3964  155.9221  145.0340 C.3     1  UNL111     -0.0363
     19 C         118.7142  154.4660  146.7545 C.3     1  UNL111     -0.0301
     20 C         115.9219  153.0713  148.4199 C.2     1  UNL111     -0.0814
     21 C         118.4660  152.5648  145.2650 C.3     1  UNL111      0.1196
     22 C         116.0994  151.7564  148.2234 C.2     1  UNL111     -0.0415
     23 C         120.0953  154.3576  146.5930 C.3     1  UNL111     -0.0065
     24 C         116.4193  157.8324  146.6416 C.3     1  UNL111     -0.0442
     25 C         115.1316  150.0606  146.6380 C.2     1  UNL111      0.1261
     26 C         119.8252  152.4593  145.0748 C.3     1  UNL111      0.1450
     27 C         120.6641  153.3660  145.7463 C.3     1  UNL111      0.1280
     28 C         113.7187  150.4632  146.9842 C.3     1  UNL111      0.0203
     29 C         124.0107  152.9831  146.5781 C.3     1  UNL111      0.0564
     30 C         124.7639  152.9254  145.3974 C.3     1  UNL111     -0.0324
     31 C         124.6910  153.1108  147.7944 C.3     1  UNL111     -0.0324
     32 C         126.1588  153.0297  145.4332 C.3     1  UNL111     -0.0533
     33 C         126.0848  153.2121  147.8321 C.3     1  UNL111     -0.0533
     34 C         126.8395  153.1830  146.6506 C.3     1  UNL111     -0.0113
     35 C         128.3497  153.3173  146.6894 C.2     1  UNL111      0.0593
     36 H         117.5021  149.6796  146.3148 H       1  UNL111      0.2519
     37 H         119.6047  150.8970  144.0170 H       1  UNL111      0.3417
     38 H         115.0054  156.3934  146.4690 H       1  UNL111      0.1328
     39 H         114.7607  154.2154  147.1424 H       1  UNL111      0.0721
     40 H         115.4332  151.8908  145.0193 H       1  UNL111      0.1485
     41 H         116.0597  155.8830  148.4819 H       1  UNL111      0.0854
     42 H         114.8989  154.3999  144.7374 H       1  UNL111      0.0545
     43 H         116.3926  154.1253  143.8618 H       1  UNL111      0.0545
     44 H         118.2727  155.0352  148.7298 H       1  UNL111      0.0617
     45 H         118.4848  156.3983  147.6397 H       1  UNL111      0.0617
     46 H         117.4693  156.0843  144.8911 H       1  UNL111      0.0738
     47 H         115.8558  156.5656  144.3311 H       1  UNL111      0.0738
     48 H         115.8046  153.4318  149.4416 H       1  UNL111      0.0820
     49 H         116.1592  151.1000  149.0934 H       1  UNL111      0.0981
     50 H         120.7731  155.0206  147.1298 H       1  UNL111      0.1108
     51 H         117.4896  157.9500  146.4603 H       1  UNL111      0.0667
     52 H         116.1541  158.1092  147.6648 H       1  UNL111      0.0667
     53 H         115.8450  158.4356  145.9330 H       1  UNL111      0.0667
     54 H         113.0199  149.7364  146.5598 H       1  UNL111      0.0616
     55 H         113.4925  151.4441  146.5592 H       1  UNL111      0.0616
     56 H         113.5892  150.4791  148.0687 H       1  UNL111      0.0616
     57 H         124.2745  152.8013  144.4362 H       1  UNL111      0.1048
     58 H         124.1353  153.1379  148.7264 H       1  UNL111      0.1048
     59 H         126.7318  152.9939  144.5075 H       1  UNL111      0.0957
     60 H         126.5994  153.3180  148.7862 H       1  UNL111      0.0957
@<TRIPOS>UNITY_ATOM_ATTR
5 1
charge -1
7 1
charge 1
@<TRIPOS>BOND
     1     1    12    1
     2     1    21    1
     3     2    16    1
     4     3    26    1
     5     4    25    2
     6     5    35   ar
     7     6    35   ar
     8     7    13    1
     9     7    18    1
    10     7    24    1
    11     8     9    2
    12     8    27    1
    13     9    29    1
    14    10    11    1
    15    10    12    1
    16    10    14    1
    17    10    15    1
    18    11    13    1
    19    11    20    1
    20    12    16    1
    21    13    17    1
    22    14    18    1
    23    15    19   ar
    24    15    21   ar
    25    16    22    1
    26    16    25    1
    27    17    19    1
    28    19    23   ar
    29    20    22    2
    30    21    26   ar
    31    23    27   ar
    32    25    28    1
    33    26    27   ar
    34    29    30   ar
    35    29    31   ar
    36    30    32   ar
    37    31    33   ar
    38    32    34   ar
    39    33    34   ar
    40    34    35    1
    41     2    36    1
    42     3    37    1
    43     7    38    1
    44    11    39    1
    45    12    40    1
    46    13    41    1
    47    14    42    1
    48    14    43    1
    49    17    44    1
    50    17    45    1
    51    18    46    1
    52    18    47    1
    53    20    48    1
    54    22    49    1
    55    23    50    1
    56    24    51    1
    57    24    52    1
    58    24    53    1
    59    28    54    1
    60    28    55    1
    61    28    56    1
    62    30    57    1
    63    31    58    1
    64    32    59    1
    65    33    60    1
@<TRIPOS>MOLECULE
6912286
 25 29 0 0 0
SMALL
GASTEIGER

@<TRIPOS>ATOM
      1 O         117.5490  152.7141  146.9308 O.2     1  UNL111     -0.5343
      2 O         118.5600  149.5519  147.3409 O.3     1  UNL111     -0.2744
      3 O         116.0902  155.3142  146.3919 O.co2   1  UNL111     -0.7919
      4 N         123.0703  152.7807  146.6076 N.4     1  UNL111      0.4425
      5 C         119.9374  152.5944  146.9314 C.3     1  UNL111      0.1122
      6 C         120.8557  152.1928  145.7014 C.3     1  UNL111      0.0699
      7 C         122.0301  153.0905  145.5951 C.3     1  UNL111      0.0449
      8 C         118.6512  151.8246  147.0883 C.3     1  UNL111      0.1851
      9 C         120.8482  152.5502  148.0905 C.3     1  UNL111      0.0748
     10 C         119.4371  153.9665  146.6259 C.2     1  UNL111      0.0265
     11 C         121.4849  154.4405  145.6165 C.3     1  UNL111      0.0637
     12 C         122.3415  152.6488  147.8880 C.3     1  UNL111      0.0451
     13 C         120.2162  154.9647  146.0399 C.2     1  UNL111     -0.0031
     14 C         118.6113  150.4701  146.4878 C.3     1  UNL111      0.2109
     15 C         120.5616  150.9513  145.1075 C.2     1  UNL111     -0.0044
     16 C         118.0523  154.0014  146.6794 C.2     1  UNL111      0.0497
     17 C         119.6120  150.3151  145.4676 C.2     1  UNL111      0.0424
     18 C         124.1750  153.7643  146.6246 C.3     1  UNL111     -0.0320
     19 C         119.5910  156.1188  145.6408 C.2     1  UNL111     -0.0116
     20 C         117.3530  155.1612  146.3316 C.2     1  UNL111     -0.0514
     21 C         118.1980  156.2069  145.8522 C.2     1  UNL111     -0.0254
     22 H         123.4282  151.8386  146.3935 H       1  UNL111      0.1528
     23 H         123.8098  154.7408  146.9586 H       1  UNL111      0.0693
     24 H         124.6033  153.8276  145.6196 H       1  UNL111      0.0693
     25 H         124.9374  153.3984  147.3191 H       1  UNL111      0.0693
@<TRIPOS>UNITY_ATOM_ATTR
3 1
charge -1
4 1
charge 1
@<TRIPOS>BOND
     1     1     8    1
     2     1    16    1
     3     2    14    1
     4     3    20    1
     5     4     7    1
     6     4    12    1
     7     4    18    1
     8     5     6    1
     9     5     8    1
    10     5     9    1
    11     5    10    1
    12     6     7    1
    13     6    15    1
    14     7    11    1
    15     8    14    1
    16     9    12    1
    17    10    13    2
    18    10    16    1
    19    11    13    1
    20    13    19    1
    21    14    17    1
    22    15    17    2
    23    16    20    2
    24    19    21    2
    25    20    21    1
    26     4    22    1
    27    18    23    1
    28    18    24    1
    29    18    25    1
@<TRIPOS>MOLECULE
5311356
 61 66 0 0 0
SMALL
GASTEIGER

@<TRIPOS>ATOM
      1 O         119.1084  154.4106  147.6485 O.3     1  UNL111     -0.5437
      2 O         118.7973  156.1495  145.7316 O.3     1  UNL111     -0.4348
      3 O         121.5768  153.4254  146.6878 O.3     1  UNL111     -0.5571
      4 O         128.1219  152.8981  146.2360 O.3     1  UNL111     -0.4518
      5 N         115.0047  151.2978  147.1392 N.4     1  UNL111      0.4275
      6 N         125.2873  152.9589  146.7753 N.4     1  UNL111      0.4346
      7 C         116.9232  153.4847  147.1984 C.3     1  UNL111      0.0532
      8 C         115.6455  153.5707  146.3545 C.3     1  UNL111     -0.0026
      9 C         115.3331  152.1220  145.8688 C.3     1  UNL111     -0.0206
     10 C         117.6904  154.7915  147.4896 C.3     1  UNL111      0.0902
     11 C         116.6264  152.6643  148.4749 C.3     1  UNL111     -0.0259
     12 C         118.0159  152.8055  146.4444 C.ar    1  UNL111      0.0235
     13 C         116.4759  151.4804  145.0177 C.3     1  UNL111     -0.0213
     14 C         116.1075  151.2564  148.1723 C.3     1  UNL111     -0.0364
     15 C         117.8642  151.8319  145.4798 C.ar    1  UNL111     -0.0425
     16 C         117.5594  155.9042  146.3979 C.3     1  UNL111      0.0605
     17 C         115.7120  154.6018  145.2672 C.2     1  UNL111     -0.0869
     18 C         119.2447  153.3319  146.7975 C.ar    1  UNL111      0.1068
     19 C         116.5591  155.6398  145.3114 C.2     1  UNL111     -0.0672
     20 C         119.0345  151.3237  144.9156 C.ar    1  UNL111     -0.0570
     21 C         114.4562  149.9225  146.8496 C.3     1  UNL111     -0.0442
     22 C         120.4216  152.8380  146.2654 C.ar    1  UNL111      0.0967
     23 C         120.3030  151.8104  145.3185 C.ar    1  UNL111     -0.0122
     24 C         122.8086  152.8783  146.2210 C.3     1  UNL111      0.0444
     25 C         123.9434  153.6478  146.9120 C.3     1  UNL111     -0.0034
     26 C         125.8461  152.9798  145.3522 C.3     1  UNL111     -0.0142
     27 C         126.3182  153.5730  147.7326 C.3     1  UNL111     -0.0142
     28 C         127.2098  152.2787  145.3255 C.3     1  UNL111      0.0103
     29 C         127.6548  152.8385  147.5867 C.3     1  UNL111      0.0103
     30 H         119.5018  155.9947  146.3873 H       1  UNL111      0.2424
     31 H         114.2161  151.7877  147.5864 H       1  UNL111      0.1328
     32 H         125.1786  151.9764  147.0601 H       1  UNL111      0.1393
     33 H         114.8139  153.8973  146.9970 H       1  UNL111      0.0720
     34 H         114.4039  152.1159  145.2855 H       1  UNL111      0.0854
     35 H         117.3584  155.2130  148.4469 H       1  UNL111      0.1417
     36 H         115.8776  153.1987  149.0746 H       1  UNL111      0.0544
     37 H         117.5165  152.5755  149.1113 H       1  UNL111      0.0544
     38 H         116.3757  151.8623  143.9931 H       1  UNL111      0.0615
     39 H         116.3692  150.3934  144.9609 H       1  UNL111      0.0615
     40 H         116.8952  150.5954  147.7969 H       1  UNL111      0.0738
     41 H         115.6845  150.8071  149.0775 H       1  UNL111      0.0738
     42 H         117.2814  156.8407  146.8953 H       1  UNL111      0.1221
     43 H         115.0058  154.5436  144.4395 H       1  UNL111      0.0812
     44 H         116.5350  156.3761  144.5076 H       1  UNL111      0.0909
     45 H         118.9853  150.5677  144.1323 H       1  UNL111      0.0939
     46 H         115.2663  149.2802  146.4979 H       1  UNL111      0.0667
     47 H         113.6692  150.0198  146.0980 H       1  UNL111      0.0667
     48 H         114.0366  149.5305  147.7802 H       1  UNL111      0.0667
     49 H         121.1739  151.3849  144.8284 H       1  UNL111      0.1143
     50 H         122.8849  152.9986  145.1346 H       1  UNL111      0.1271
     51 H         122.8695  151.8163  146.4872 H       1  UNL111      0.1271
     52 H         124.0383  154.6651  146.5151 H       1  UNL111      0.0906
     53 H         123.7329  153.7241  147.9852 H       1  UNL111      0.0906
     54 H         125.9343  154.0328  145.0646 H       1  UNL111      0.0853
     55 H         125.1313  152.4642  144.7057 H       1  UNL111      0.0853
     56 H         125.9225  153.4746  148.7479 H       1  UNL111      0.0853
     57 H         126.4105  154.6289  147.4568 H       1  UNL111      0.0853
     58 H         127.1133  151.2156  145.5757 H       1  UNL111      0.1016
     59 H         127.6411  152.3476  144.3221 H       1  UNL111      0.1016
     60 H         128.4088  153.3122  148.2228 H       1  UNL111      0.1016
     61 H         127.5673  151.7901  147.8950 H       1  UNL111      0.1016
@<TRIPOS>UNITY_ATOM_ATTR
5 1
charge 1
6 1
charge 1
@<TRIPOS>BOND
     1     1    10    1
     2     1    18    1
     3     2    16    1
     4     3    22    1
     5     3    24    1
     6     4    28    1
     7     4    29    1
     8     5     9    1
     9     5    14    1
    10     5    21    1
    11     6    25    1
    12     6    26    1
    13     6    27    1
    14     7     8    1
    15     7    10    1
    16     7    11    1
    17     7    12    1
    18     8     9    1
    19     8    17    1
    20     9    13    1
    21    10    16    1
    22    11    14    1
    23    12    15   ar
    24    12    18   ar
    25    13    15    1
    26    15    20   ar
    27    16    19    1
    28    17    19    2
    29    18    22   ar
    30    20    23   ar
    31    22    23   ar
    32    24    25    1
    33    26    28    1
    34    27    29    1
    35     2    30    1
    36     5    31    1
    37     6    32    1
    38     8    33    1
    39     9    34    1
    40    10    35    1
    41    11    36    1
    42    11    37    1
    43    13    38    1
    44    13    39    1
    45    14    40    1
    46    14    41    1
    47    16    42    1
    48    17    43    1
    49    19    44    1
    50    20    45    1
    51    21    46    1
    52    21    47    1
    53    21    48    1
    54    23    49    1
    55    24    50    1
    56    24    51    1
    57    25    52    1
    58    25    53    1
    59    26    54    1
    60    26    55    1
    61    27    56    1
    62    27    57    1
    63    28    58    1
    64    28    59    1
    65    29    60    1
    66    29    61    1
@<TRIPOS>MOLECULE
5284371
 44 48 0 0 0
SMALL
GASTEIGER

@<TRIPOS>ATOM
      1 O         118.3581  152.0938  147.7250 O.3     1  UNL111     -0.5437
      2 O         117.9213  150.5722  145.6330 O.3     1  UNL111     -0.4348
      3 O         116.2362  153.8802  147.1839 O.3     1  UNL111     -0.5684
      4 N         123.1248  153.8923  146.8927 N.4     1  UNL111      0.4275
      5 C         120.6552  152.3649  147.0532 C.3     1  UNL111      0.0532
      6 C         121.7548  151.9891  146.0544 C.3     1  UNL111     -0.0026
      7 C         122.4380  153.3231  145.6236 C.3     1  UNL111     -0.0206
      8 C         119.5563  151.3256  147.3521 C.3     1  UNL111      0.0902
      9 C         121.3141  152.9287  148.3332 C.3     1  UNL111     -0.0259
     10 C         119.7570  153.4127  146.4914 C.ar    1  UNL111      0.0234
     11 C         121.4667  154.3487  144.9582 C.3     1  UNL111     -0.0213
     12 C         122.1917  154.1508  148.0572 C.3     1  UNL111     -0.0364
     13 C         120.0996  154.3899  145.5801 C.ar    1  UNL111     -0.0425
     14 C         119.2191  150.3492  146.1785 C.3     1  UNL111      0.0605
     15 C         121.2755  151.1259  144.9254 C.2     1  UNL111     -0.0869
     16 C         118.4737  153.2496  146.9777 C.ar    1  UNL111      0.1060
     17 C         120.1569  150.3914  145.0064 C.2     1  UNL111     -0.0672
     18 C         124.0180  155.0752  146.6227 C.3     1  UNL111     -0.0442
     19 C         119.0958  155.2883  145.2203 C.ar    1  UNL111     -0.0571
     20 C         117.4617  154.1281  146.6444 C.ar    1  UNL111      0.0926
     21 C         117.7938  155.1691  145.7646 C.ar    1  UNL111     -0.0130
     22 C         115.1608  154.7033  146.7498 C.3     1  UNL111      0.0331
     23 H         117.3724  150.9619  146.3413 H       1  UNL111      0.2424
     24 H         123.7695  153.1543  147.2083 H       1  UNL111      0.1328
     25 H         122.5099  151.3755  146.5686 H       1  UNL111      0.0720
     26 H         123.2639  153.1118  144.9329 H       1  UNL111      0.0854
     27 H         119.8438  150.7233  148.2234 H       1  UNL111      0.1417
     28 H         121.9282  152.1432  148.7936 H       1  UNL111      0.0544
     29 H         120.5633  153.2047  149.0850 H       1  UNL111      0.0544
     30 H         121.3324  154.0444  143.9118 H       1  UNL111      0.0615
     31 H         121.8977  155.3537  144.9411 H       1  UNL111      0.0615
     32 H         121.6041  155.0449  147.8263 H       1  UNL111      0.0738
     33 H         122.8197  154.3685  148.9281 H       1  UNL111      0.0738
     34 H         119.2173  149.3277  146.5763 H       1  UNL111      0.1221
     35 H         121.8837  151.0461  144.0256 H       1  UNL111      0.0812
     36 H         119.8741  149.7620  144.1625 H       1  UNL111      0.0909
     37 H         123.4012  155.9537  146.4224 H       1  UNL111      0.0667
     38 H         124.6567  154.8336  145.7695 H       1  UNL111      0.0667
     39 H         124.6323  155.2367  147.5127 H       1  UNL111      0.0667
     40 H         119.2890  156.0771  144.4950 H       1  UNL111      0.0939
     41 H         117.0481  155.8932  145.4465 H       1  UNL111      0.1142
     42 H         114.2489  154.3487  147.2397 H       1  UNL111      0.1074
     43 H         115.0120  154.6217  145.6679 H       1  UNL111      0.1074
     44 H         115.3176  155.7447  147.0495 H       1  UNL111      0.1074
@<TRIPOS>UNITY_ATOM_ATTR
4 1
charge 1
@<TRIPOS>BOND
     1     1     8    1
     2     1    16    1
     3     2    14    1
     4     3    20    1
     5     3    22    1
     6     4     7    1
     7     4    12    1
     8     4    18    1
     9     5     6    1
    10     5     8    1
    11     5     9    1
    12     5    10    1
    13     6     7    1
    14     6    15    1
    15     7    11    1
    16     8    14    1
    17     9    12    1
    18    10    13   ar
    19    10    16   ar
    20    11    13    1
    21    13    19   ar
    22    14    17    1
    23    15    17    2
    24    16    20   ar
    25    19    21   ar
    26    20    21   ar
    27     2    23    1
    28     4    24    1
    29     6    25    1
    30     7    26    1
    31     8    27    1
    32     9    28    1
    33     9    29    1
    34    11    30    1
    35    11    31    1
    36    12    32    1
    37    12    33    1
    38    14    34    1
    39    15    35    1
    40    17    36    1
    41    18    37    1
    42    18    38    1
    43    18    39    1
    44    19    40    1
    45    21    41    1
    46    22    42    1
    47    22    43    1
    48    22    44    1
@<TRIPOS>MOLECULE
5362460
 63 69 0 0 0
SMALL
GASTEIGER

@<TRIPOS>ATOM
      1 O         120.5062  153.3415  147.7181 O.2     1  UNL111     -0.5384
      2 O         119.4303  151.1437  146.7734 O.3     1  UNL111     -0.4921
      3 O         119.0591  155.5701  146.5140 O.3     1  UNL111     -0.4456
      4 O         119.1716  148.8824  146.4935 O.2     1  UNL111     -0.3202
      5 O         118.3782  154.0971  144.8331 O.2     1  UNL111     -0.3170
      6 N         125.6574  153.1435  146.8747 N.4     1  UNL111      0.4275
      7 N         115.0456  149.5516  146.0613 N.pl3   1  UNL111     -0.3003
      8 N         115.2426  156.2050  147.7689 N.pl3   1  UNL111     -0.3003
      9 C         122.8022  152.7219  147.2175 C.3     1  UNL111      0.0569
     10 C         123.6278  151.8180  146.2880 C.3     1  UNL111     -0.0012
     11 C         124.7643  152.7047  145.6893 C.3     1  UNL111     -0.0204
     12 C         121.4286  152.1947  147.7043 C.3     1  UNL111      0.1051
     13 C         123.6732  153.2293  148.3849 C.3     1  UNL111     -0.0252
     14 C         122.3060  153.8865  146.4235 C.3     1  UNL111      0.0253
     15 C         124.2468  153.9204  144.8603 C.3     1  UNL111     -0.0213
     16 C         124.9365  153.9543  147.9266 C.3     1  UNL111     -0.0363
     17 C         122.9644  154.5147  145.3770 C.3     1  UNL111     -0.0422
     18 C         120.8552  150.9961  146.8877 C.3     1  UNL111      0.1138
     19 C         122.7642  151.1358  145.2590 C.2     1  UNL111     -0.0822
     20 C         121.0158  154.2015  146.7850 C.3     1  UNL111      0.1152
     21 C         121.4943  150.7962  145.5325 C.2     1  UNL111     -0.0491
     22 C         126.9502  153.7951  146.4546 C.3     1  UNL111     -0.0442
     23 C         122.3198  155.5942  144.7650 C.3     1  UNL111     -0.0561
     24 C         120.3625  155.2447  146.1671 C.3     1  UNL111      0.1350
     25 C         121.0288  155.9756  145.1772 C.3     1  UNL111     -0.0050
     26 C         118.7137  150.0051  146.6247 C.2     1  UNL111      0.2703
     27 C         118.1441  154.8710  145.7501 C.2     1  UNL111      0.2823
     28 C         117.2705  150.3094  146.6343 C.3     1  UNL111      0.0999
     29 C         116.7702  155.2227  146.1690 C.3     1  UNL111      0.1025
     30 C         116.7364  151.4650  147.2100 C.3     1  UNL111     -0.0263
     31 C         116.3914  149.3866  146.0854 C.3     1  UNL111      0.0209
     32 C         115.3554  151.6513  147.2100 C.3     1  UNL111     -0.0510
     33 C         115.6899  154.8618  145.3585 C.3     1  UNL111     -0.0259
     34 C         116.4944  155.8864  147.3569 C.3     1  UNL111      0.0213
     35 C         114.5591  150.6786  146.6259 C.3     1  UNL111     -0.0230
     36 C         114.3938  155.1876  145.7536 C.3     1  UNL111     -0.0510
     37 C         114.2217  155.8562  146.9547 C.3     1  UNL111     -0.0230
     38 H         125.9530  152.2721  147.3368 H       1  UNL111      0.1328
     39 H         124.0945  151.0139  146.8754 H       1  UNL111      0.0721
     40 H         125.4196  152.0911  145.0586 H       1  UNL111      0.0854
     41 H         121.4956  151.8671  148.7501 H       1  UNL111      0.1478
     42 H         123.9634  152.3718  149.0067 H       1  UNL111      0.0545
     43 H         123.1054  153.9036  149.0392 H       1  UNL111      0.0545
     44 H         124.0416  153.5577  143.8442 H       1  UNL111      0.0615
     45 H         125.0058  154.7021  144.7679 H       1  UNL111      0.0615
     46 H         124.7248  154.9429  147.5072 H       1  UNL111      0.0738
     47 H         125.6272  154.0779  148.7680 H       1  UNL111      0.0738
     48 H         121.0741  150.0887  147.4691 H       1  UNL111      0.1535
     49 H         123.1782  150.8814  144.2849 H       1  UNL111      0.0821
     50 H         120.9081  150.2712  144.7797 H       1  UNL111      0.0975
     51 H         126.7432  154.7993  146.0795 H       1  UNL111      0.0667
     52 H         127.4139  153.1708  145.6869 H       1  UNL111      0.0667
     53 H         127.5976  153.8440  147.3344 H       1  UNL111      0.0667
     54 H         122.7825  156.1220  143.9329 H       1  UNL111      0.0940
     55 H         120.5241  156.8001  144.6790 H       1  UNL111      0.1154
     56 H         117.3787  152.2103  147.6700 H       1  UNL111      0.1017
     57 H         116.7451  148.4622  145.6351 H       1  UNL111      0.1456
     58 H         114.9091  152.5320  147.6601 H       1  UNL111      0.0990
     59 H         115.8523  154.3305  144.4227 H       1  UNL111      0.1017
     60 H         117.2763  156.1910  148.0470 H       1  UNL111      0.1457
     61 H         113.4773  150.7794  146.6002 H       1  UNL111      0.1342
     62 H         113.5391  154.9260  145.1383 H       1  UNL111      0.0990
     63 H         113.2313  156.1358  147.3051 H       1  UNL111      0.1342
@<TRIPOS>UNITY_ATOM_ATTR
6 1
charge 1
@<TRIPOS>BOND
     1     1    12    1
     2     1    20    1
     3     2    18    1
     4     2    26    1
     5     3    24    1
     6     3    27    1
     7     4    26    2
     8     5    27    2
     9     6    11    1
    10     6    16    1
    11     6    22    1
    12     7    31   ar
    13     7    35   ar
    14     8    34   ar
    15     8    37   ar
    16     9    10    1
    17     9    12    1
    18     9    13    1
    19     9    14    1
    20    10    11    1
    21    10    19    1
    22    11    15    1
    23    12    18    1
    24    13    16    1
    25    14    17   ar
    26    14    20   ar
    27    15    17    1
    28    17    23   ar
    29    18    21    1
    30    19    21    2
    31    20    24   ar
    32    23    25   ar
    33    24    25   ar
    34    26    28    1
    35    27    29    1
    36    28    30   ar
    37    28    31   ar
    38    29    33   ar
    39    29    34   ar
    40    30    32   ar
    41    32    35   ar
    42    33    36   ar
    43    36    37   ar
    44     6    38    1
    45    10    39    1
    46    11    40    1
    47    12    41    1
    48    13    42    1
    49    13    43    1
    50    15    44    1
    51    15    45    1
    52    16    46    1
    53    16    47    1
    54    18    48    1
    55    19    49    1
    56    21    50    1
    57    22    51    1
    58    22    52    1
    59    22    53    1
    60    23    54    1
    61    25    55    1
    62    30    56    1
    63    31    57    1
    64    32    58    1
    65    33    59    1
    66    34    60    1
    67    35    61    1
    68    36    62    1
    69    37    63    1
@<TRIPOS>MOLECULE
5462505
 44 48 0 0 0
SMALL
GASTEIGER

@<TRIPOS>ATOM
      1 O         118.1259  153.2981  147.7379 O.3     1  UNL111     -0.5437
      2 O         116.7601  151.8530  146.0283 O.3     1  UNL111     -0.4467
      3 O         117.2025  155.9760  147.0618 O.3     1  UNL111     -0.5485
      4 N         123.1472  152.3832  146.8118 N.4     1  UNL111      0.4275
      5 C         120.2491  152.3583  147.0548 C.3     1  UNL111      0.0534
      6 C         120.9612  151.4902  146.0106 C.3     1  UNL111     -0.0025
      7 C         122.2341  152.2776  145.5649 C.3     1  UNL111     -0.0206
      8 C         118.7845  152.0179  147.4221 C.3     1  UNL111      0.0909
      9 C         121.1459  152.5090  148.3037 C.3     1  UNL111     -0.0258
     10 C         119.9902  153.7115  146.4836 C.ar    1  UNL111      0.0232
     11 C         121.9295  153.6712  144.9310 C.3     1  UNL111     -0.0213
     12 C         122.5195  153.0991  147.9875 C.3     1  UNL111     -0.0364
     13 C         117.9929  151.2029  146.3446 C.3     1  UNL111      0.0611
     14 C         120.7694  154.3887  145.5622 C.ar    1  UNL111     -0.0425
     15 C         120.0554  151.0784  144.8848 C.2     1  UNL111     -0.0867
     16 C         118.7957  154.2045  146.9577 C.ar    1  UNL111      0.1050
     17 C         118.7297  150.9599  145.0497 C.2     1  UNL111     -0.0662
     18 C         124.5279  152.9082  146.5130 C.3     1  UNL111     -0.0442
     19 C         120.3490  155.6694  145.1931 C.ar    1  UNL111     -0.0573
     20 C         118.3750  155.4642  146.6065 C.ar    1  UNL111      0.0917
     21 C         119.1637  156.2125  145.7328 C.ar    1  UNL111     -0.0140
     22 C         115.6511  150.9645  145.9741 C.3     1  UNL111      0.0016
     23 H         116.7498  155.2490  147.5311 H       1  UNL111      0.3393
     24 H         123.3061  151.4146  147.1212 H       1  UNL111      0.1328
     25 H         121.2895  150.5513  146.4801 H       1  UNL111      0.0720
     26 H         122.8094  151.6766  144.8497 H       1  UNL111      0.0854
     27 H         118.7625  151.4323  148.3507 H       1  UNL111      0.1419
     28 H         121.2800  151.5211  148.7642 H       1  UNL111      0.0544
     29 H         120.6673  153.1374  149.0661 H       1  UNL111      0.0544
     30 H         121.6659  153.5031  143.8784 H       1  UNL111      0.0615
     31 H         122.8121  154.3169  144.9354 H       1  UNL111      0.0615
     32 H         122.4744  154.1665  147.7497 H       1  UNL111      0.0738
     33 H         123.1928  152.9654  148.8414 H       1  UNL111      0.0738
     34 H         117.7913  150.2132  146.7783 H       1  UNL111      0.1236
     35 H         120.4857  150.8304  143.9158 H       1  UNL111      0.0812
     36 H         118.1217  150.6349  144.2064 H       1  UNL111      0.0911
     37 H         124.4717  153.9810  146.3180 H       1  UNL111      0.0667
     38 H         124.9201  152.3659  145.6492 H       1  UNL111      0.0667
     39 H         125.1530  152.7131  147.3888 H       1  UNL111      0.0667
     40 H         120.9073  156.2536  144.4640 H       1  UNL111      0.0939
     41 H         118.8344  157.2051  145.4329 H       1  UNL111      0.1139
     42 H         114.7610  151.5408  145.7085 H       1  UNL111      0.0826
     43 H         115.4870  150.5013  146.9519 H       1  UNL111      0.0826
     44 H         115.8089  150.1940  145.2135 H       1  UNL111      0.0826
@<TRIPOS>UNITY_ATOM_ATTR
4 1
charge 1
@<TRIPOS>BOND
     1     1     8    1
     2     1    16    1
     3     2    13    1
     4     2    22    1
     5     3    20    1
     6     4     7    1
     7     4    12    1
     8     4    18    1
     9     5     6    1
    10     5     8    1
    11     5     9    1
    12     5    10    1
    13     6     7    1
    14     6    15    1
    15     7    11    1
    16     8    13    1
    17     9    12    1
    18    10    14   ar
    19    10    16   ar
    20    11    14    1
    21    13    17    1
    22    14    19   ar
    23    15    17    2
    24    16    20   ar
    25    19    21   ar
    26    20    21   ar
    27     3    23    1
    28     4    24    1
    29     6    25    1
    30     7    26    1
    31     8    27    1
    32     9    28    1
    33     9    29    1
    34    11    30    1
    35    11    31    1
    36    12    32    1
    37    12    33    1
    38    13    34    1
    39    15    35    1
    40    17    36    1
    41    18    37    1
    42    18    38    1
    43    18    39    1
    44    19    40    1
    45    21    41    1
    46    22    42    1
    47    22    43    1
    48    22    44    1
@<TRIPOS>MOLECULE
5462507
 46 50 0 0 0
SMALL
GASTEIGER

@<TRIPOS>ATOM
      1 O         118.5520  153.7902  147.5560 O.2     1  UNL111     -0.5395
      2 O         116.8189  152.4719  146.0038 O.3     1  UNL111     -0.5034
      3 O         118.3248  156.5904  146.8078 O.2     1  UNL111     -0.5485
      4 O         115.9780  151.8868  148.0539 O.2     1  UNL111     -0.3412
      5 N         123.2423  151.6560  146.8080 N.4     1  UNL111      0.4275
      6 C         120.4249  152.3518  146.9914 C.3     1  UNL111      0.0568
      7 C         120.9167  151.3170  145.9691 C.3     1  UNL111     -0.0012
      8 C         122.3551  151.7528  145.5435 C.3     1  UNL111     -0.0204
      9 C         118.9162  152.3765  147.3447 C.3     1  UNL111      0.1046
     10 C         121.3142  152.3115  148.2527 C.3     1  UNL111     -0.0252
     11 C         120.5064  153.7103  146.3780 C.3     1  UNL111      0.0241
     12 C         122.4172  153.1651  144.8820 C.3     1  UNL111     -0.0213
     13 C         122.7948  152.5362  147.9533 C.3     1  UNL111     -0.0363
     14 C         121.4442  154.1542  145.4615 C.3     1  UNL111     -0.0424
     15 C         117.9830  151.6856  146.2985 C.3     1  UNL111      0.1110
     16 C         119.9547  151.1471  144.8237 C.2     1  UNL111     -0.0823
     17 C         119.4474  154.4849  146.7904 C.3     1  UNL111      0.1061
     18 C         118.6356  151.3359  144.9823 C.2     1  UNL111     -0.0495
     19 C         124.7163  151.8091  146.5315 C.3     1  UNL111     -0.0442
     20 C         121.3448  155.4833  145.0397 C.3     1  UNL111     -0.0573
     21 C         119.3463  155.7969  146.3943 C.3     1  UNL111      0.0919
     22 C         120.3084  156.3078  145.5243 C.3     1  UNL111     -0.0140
     23 C         115.8799  152.4822  146.9895 C.2     1  UNL111      0.2147
     24 C         114.7322  153.3652  146.6089 C.3     1  UNL111      0.0550
     25 H         117.7634  156.0461  147.3912 H       1  UNL111      0.3393
     26 H         123.1470  150.6864  147.1408 H       1  UNL111      0.1328
     27 H         120.9874  150.3307  146.4504 H       1  UNL111      0.0721
     28 H         122.7759  151.0132  144.8509 H       1  UNL111      0.0854
     29 H         118.7494  151.8794  148.3092 H       1  UNL111      0.1477
     30 H         121.1943  151.3336  148.7380 H       1  UNL111      0.0545
     31 H         120.9934  153.0592  148.9898 H       1  UNL111      0.0545
     32 H         122.1541  153.0429  143.8229 H       1  UNL111      0.0615
     33 H         123.4285  153.5801  144.9092 H       1  UNL111      0.0615
     34 H         123.0176  153.5749  147.6899 H       1  UNL111      0.0738
     35 H         123.4015  152.2643  148.8241 H       1  UNL111      0.0738
     36 H         117.6614  150.7165  146.7076 H       1  UNL111      0.1530
     37 H         120.3264  150.8258  143.8521 H       1  UNL111      0.0821
     38 H         117.9668  151.1683  144.1390 H       1  UNL111      0.0975
     39 H         124.9354  152.8561  146.3125 H       1  UNL111      0.0667
     40 H         124.9748  151.1632  145.6888 H       1  UNL111      0.0667
     41 H         125.2564  151.4867  147.4258 H       1  UNL111      0.0667
     42 H         122.0430  155.8934  144.3121 H       1  UNL111      0.0939
     43 H         120.2319  157.3398  145.1881 H       1  UNL111      0.1139
     44 H         114.9966  154.4092  146.7922 H       1  UNL111      0.0793
     45 H         113.8566  153.0973  147.2068 H       1  UNL111      0.0793
     46 H         114.4765  153.2178  145.5560 H       1  UNL111      0.0793
@<TRIPOS>UNITY_ATOM_ATTR
5 1
charge 1
@<TRIPOS>BOND
     1     1     9    1
     2     1    17    1
     3     2    15    1
     4     2    23    1
     5     3    21    1
     6     4    23    2
     7     5     8    1
     8     5    13    1
     9     5    19    1
    10     6     7    1
    11     6     9    1
    12     6    10    1
    13     6    11    1
    14     7     8    1
    15     7    16    1
    16     8    12    1
    17     9    15    1
    18    10    13    1
    19    11    14   ar
    20    11    17   ar
    21    12    14    1
    22    14    20   ar
    23    15    18    1
    24    16    18    2
    25    17    21   ar
    26    20    22   ar
    27    21    22   ar
    28    23    24    1
    29     3    25    1
    30     5    26    1
    31     7    27    1
    32     8    28    1
    33     9    29    1
    34    10    30    1
    35    10    31    1
    36    12    32    1
    37    12    33    1
    38    13    34    1
    39    13    35    1
    40    15    36    1
    41    16    37    1
    42    18    38    1
    43    19    39    1
    44    19    40    1
    45    19    41    1
    46    20    42    1
    47    22    43    1
    48    24    44    1
    49    24    45    1
    50    24    46    1
@<TRIPOS>MOLECULE
5462504
 46 50 0 0 0
SMALL
GASTEIGER

@<TRIPOS>ATOM
      1 O         118.6638  152.6504  148.2249 O.2     1  UNL111     -0.5430
      2 O         117.4772  151.0088  146.4456 O.3     1  UNL111     -0.4348
      3 O         117.0048  155.0454  148.1434 O.3     1  UNL111     -0.4570
      4 O         117.6537  152.6808  144.8705 O.2     1  UNL111     -0.3381
      5 N         123.5159  153.4191  146.5754 N.4     1  UNL111      0.4275
      6 C         120.8321  152.4483  147.1621 C.3     1  UNL111      0.0533
      7 C         121.6267  151.9153  145.9645 C.3     1  UNL111     -0.0026
      8 C         122.5012  153.0988  145.4446 C.3     1  UNL111     -0.0206
      9 C         119.5894  151.6634  147.6417 C.3     1  UNL111      0.0903
     10 C         121.8223  152.7659  148.3081 C.3     1  UNL111     -0.0259
     11 C         120.1182  153.7071  146.8131 C.3     1  UNL111      0.0244
     12 C         121.6840  154.3524  145.0040 C.3     1  UNL111     -0.0213
     13 C         122.8904  153.7858  147.9050 C.3     1  UNL111     -0.0364
     14 C         120.5134  154.6595  145.8934 C.3     1  UNL111     -0.0423
     15 C         118.9019  150.7788  146.5481 C.3     1  UNL111      0.0605
     16 C         120.7879  151.2314  144.9262 C.2     1  UNL111     -0.0869
     17 C         118.9440  153.7990  147.5278 C.3     1  UNL111      0.1138
     18 C         119.5881  150.7017  145.2053 C.2     1  UNL111     -0.0672
     19 C         124.5807  154.4067  146.1727 C.3     1  UNL111     -0.0442
     20 C         119.7126  155.7989  145.7766 C.3     1  UNL111     -0.0561
     21 C         118.1588  154.9228  147.4379 C.3     1  UNL111      0.1318
     22 C         118.5507  155.9388  146.5668 C.3     1  UNL111     -0.0054
     23 C         116.9950  151.9854  145.6297 C.2     1  UNL111      0.2266
     24 C         115.5090  152.0896  145.7894 C.3     1  UNL111      0.0573
     25 H         116.9087  154.2315  148.6717 H       1  UNL111      0.2424
     26 H         124.0305  152.5427  146.7371 H       1  UNL111      0.1328
     27 H         122.3109  151.1280  146.3165 H       1  UNL111      0.0720
     28 H         123.1209  152.7614  144.6045 H       1  UNL111      0.0854
     29 H         119.8779  150.9970  148.4657 H       1  UNL111      0.1417
     30 H         122.3152  151.8358  148.6210 H       1  UNL111      0.0544
     31 H         121.3009  153.1448  149.1969 H       1  UNL111      0.0544
     32 H         121.2806  154.1494  144.0031 H       1  UNL111      0.0615
     33 H         122.3241  155.2345  144.9123 H       1  UNL111      0.0615
     34 H         122.4894  154.8007  147.8212 H       1  UNL111      0.0738
     35 H         123.6980  153.7974  148.6454 H       1  UNL111      0.0738
     36 H         118.9615  149.7499  146.9294 H       1  UNL111      0.1221
     37 H         121.1919  151.1003  143.9232 H       1  UNL111      0.0812
     38 H         119.0464  150.1776  144.4185 H       1  UNL111      0.0909
     39 H         124.1447  155.4067  146.1242 H       1  UNL111      0.0667
     40 H         124.9833  154.0996  145.2044 H       1  UNL111      0.0667
     41 H         125.3682  154.3719  146.9305 H       1  UNL111      0.0667
     42 H         119.9517  156.5782  145.0555 H       1  UNL111      0.0940
     43 H         117.9272  156.8240  146.4618 H       1  UNL111      0.1154
     44 H         115.2665  152.3623  146.8196 H       1  UNL111      0.0797
     45 H         115.0392  151.1401  145.5209 H       1  UNL111      0.0797
     46 H         115.1265  152.8684  145.1236 H       1  UNL111      0.0797
@<TRIPOS>UNITY_ATOM_ATTR
5 1
charge 1
@<TRIPOS>BOND
     1     1     9    1
     2     1    17    1
     3     2    15    1
     4     3    21    1
     5     3    23    1
     6     4    23    2
     7     5     8    1
     8     5    13    1
     9     5    19    1
    10     6     7    1
    11     6     9    1
    12     6    10    1
    13     6    11    1
    14     7     8    1
    15     7    16    1
    16     8    12    1
    17     9    15    1
    18    10    13    1
    19    11    14   ar
    20    11    17   ar
    21    12    14    1
    22    14    20   ar
    23    15    18    1
    24    16    18    2
    25    17    21   ar
    26    20    22   ar
    27    21    22   ar
    28    23    24    1
    29     2    25    1
    30     5    26    1
    31     7    27    1
    32     8    28    1
    33     9    29    1
    34    10    30    1
    35    10    31    1
    36    12    32    1
    37    12    33    1
    38    13    34    1
    39    13    35    1
    40    15    36    1
    41    16    37    1
    42    18    38    1
    43    19    39    1
    44    19    40    1
    45    19    41    1
    46    20    42    1
    47    22    43    1
    48    24    44    1
    49    24    45    1
    50    24    46    1
@<TRIPOS>MOLECULE
46780039
 28 32 0 0 0
SMALL
GASTEIGER

@<TRIPOS>ATOM
      1 O         121.3943  152.2198  147.0137 O.2     1  UNL111     -0.5317
      2 O         122.9507  154.0715  145.6253 O.3     1  UNL111     -0.4648
      3 O         121.3775  149.2989  146.5871 O.co2   1  UNL111     -0.7919
      4 O         123.7460  154.5940  147.7684 O.2     1  UNL111     -0.3303
      5 N         116.5352  154.8713  146.6743 N.4     1  UNL111      0.4425
      6 C         119.4112  153.5678  146.8980 C.3     1  UNL111      0.1143
      7 C         118.7508  154.3515  145.6978 C.3     1  UNL111      0.0713
      8 C         117.2784  154.1156  145.6268 C.3     1  UNL111      0.0451
      9 C         120.9357  153.5539  146.9484 C.3     1  UNL111      0.1890
     10 C         118.7200  154.1246  148.0724 C.3     1  UNL111      0.0755
     11 C         119.1347  152.1163  146.6822 C.2     1  UNL111      0.0272
     12 C         117.1191  152.6714  145.6666 C.3     1  UNL111      0.0637
     13 C         117.3275  154.7125  147.9164 C.3     1  UNL111      0.0452
     14 C         117.9651  151.6091  146.1224 C.2     1  UNL111     -0.0030
     15 C         121.6831  154.4662  146.0529 C.3     1  UNL111      0.2116
     16 C         119.6348  155.1389  144.9347 C.2     1  UNL111     -0.0006
     17 C         120.3011  151.3800  146.7954 C.2     1  UNL111      0.0508
     18 C         120.8166  155.1416  145.1338 C.2     1  UNL111      0.0489
     19 C         115.1129  154.4451  146.8035 C.3     1  UNL111     -0.0320
     20 C         117.9254  150.2746  145.8004 C.2     1  UNL111     -0.0116
     21 C         120.3365  150.0228  146.5042 C.2     1  UNL111     -0.0512
     22 C         119.0880  149.5108  146.0467 C.2     1  UNL111     -0.0254
     23 C         123.8492  154.1521  146.6366 C.2     1  UNL111      0.2650
     24 C         125.2534  153.8430  146.2390 C.3     1  UNL111      0.2318
     25 H         116.5603  155.8693  146.4242 H       1  UNL111      0.1528
     26 H         115.0570  153.4230  147.1910 H       1  UNL111      0.0693
     27 H         114.6352  154.5250  145.8224 H       1  UNL111      0.0693
     28 H         114.6246  155.1325  147.5011 H       1  UNL111      0.0693
@<TRIPOS>UNITY_ATOM_ATTR
3 1
charge -1
5 1
charge 1
@<TRIPOS>BOND
     1     1     9    1
     2     1    17    1
     3     2    15    1
     4     2    23    1
     5     3    21    1
     6     4    23    2
     7     5     8    1
     8     5    13    1
     9     5    19    1
    10     6     7    1
    11     6     9    1
    12     6    10    1
    13     6    11    1
    14     7     8    1
    15     7    16    1
    16     8    12    1
    17     9    15    1
    18    10    13    1
    19    11    14    2
    20    11    17    1
    21    12    14    1
    22    14    20    1
    23    15    18    1
    24    16    18    2
    25    17    21    2
    26    20    22    2
    27    21    22    1
    28    23    24    1
    29     5    25    1
    30    19    26    1
    31    19    27    1
    32    19    28    1
@<TRIPOS>MOLECULE
521308
 61 66 0 0 0
SMALL
GASTEIGER

@<TRIPOS>ATOM
      1 O         119.4933  152.6003  147.2260 O.3     1  UNL111     -0.5437
      2 O         120.0639  149.3423  146.5365 O.3     1  UNL111     -0.4348
      3 O         117.8959  154.7844  146.0033 O.3     1  UNL111     -0.5571
      4 O         113.5867  151.6236  146.3593 O.3     1  UNL111     -0.4518
      5 N         124.6208  153.4117  147.3938 N.4     1  UNL111      0.4275
      6 N         115.3786  153.8593  146.6583 N.4     1  UNL111      0.4346
      7 C         121.9031  152.4203  147.0736 C.3     1  UNL111      0.0532
      8 C         123.0768  151.7887  146.3113 C.3     1  UNL111     -0.0026
      9 C         124.0915  152.9372  146.0202 C.3     1  UNL111     -0.0206
     10 C         120.5945  151.6080  147.1765 C.3     1  UNL111      0.0902
     11 C         122.4027  152.9232  148.4471 C.3     1  UNL111     -0.0259
     12 C         121.3446  153.5740  146.3118 C.ar    1  UNL111      0.0235
     13 C         123.4925  154.1058  145.1724 C.3     1  UNL111     -0.0213
     14 C         123.5584  153.9211  148.3387 C.3     1  UNL111     -0.0364
     15 C         122.0477  154.4129  145.4678 C.ar    1  UNL111     -0.0425
     16 C         120.3208  150.6351  145.9901 C.3     1  UNL111      0.0605
     17 C         122.6502  151.0103  145.0991 C.2     1  UNL111     -0.0869
     18 C         119.9776  153.6586  146.4952 C.ar    1  UNL111      0.1068
     19 C         121.4204  150.4906  144.9773 C.2     1  UNL111     -0.0672
     20 C         121.3234  155.4305  144.8437 C.ar    1  UNL111     -0.0570
     21 C         125.7931  154.3586  147.3028 C.3     1  UNL111     -0.0442
     22 C         119.2529  154.6764  145.9114 C.ar    1  UNL111      0.0967
     23 C         119.9353  155.5633  145.0704 C.ar    1  UNL111     -0.0122
     24 C         117.4696  155.0658  147.3463 C.3     1  UNL111      0.0444
     25 C         115.9364  155.0961  147.3432 C.3     1  UNL111     -0.0034
     26 C         115.5371  152.5807  147.4737 C.3     1  UNL111     -0.0142
     27 C         113.9201  154.0409  146.2483 C.3     1  UNL111     -0.0142
     28 C         114.9595  151.3966  146.6912 C.3     1  UNL111      0.0103
     29 C         113.4238  152.7804  145.5322 C.3     1  UNL111      0.0103
     30 H         119.9700  148.7092  145.8022 H       1  UNL111      0.2424
     31 H         125.0195  152.5725  147.8402 H       1  UNL111      0.1328
     32 H         115.9355  153.7470  145.7957 H       1  UNL111      0.1393
     33 H         123.5741  151.0532  146.9611 H       1  UNL111      0.0720
     34 H         124.9730  152.5350  145.5056 H       1  UNL111      0.0854
     35 H         120.5546  151.0591  148.1258 H       1  UNL111      0.1417
     36 H         122.7339  152.0605  149.0407 H       1  UNL111      0.0544
     37 H         121.5924  153.3927  149.0200 H       1  UNL111      0.0544
     38 H         123.5427  153.8029  144.1181 H       1  UNL111      0.0615
     39 H         124.0899  155.0170  145.2677 H       1  UNL111      0.0615
     40 H         123.2282  154.9002  147.9773 H       1  UNL111      0.0738
     41 H         124.0338  154.0568  149.3164 H       1  UNL111      0.0738
     42 H         119.4074  150.9393  145.4650 H       1  UNL111      0.1221
     43 H         123.3844  150.8039  144.3207 H       1  UNL111      0.0812
     44 H         121.1865  149.9091  144.0860 H       1  UNL111      0.0909
     45 H         121.8104  156.1124  144.1470 H       1  UNL111      0.0939
     46 H         125.4397  155.3356  146.9670 H       1  UNL111      0.0667
     47 H         126.5200  153.9358  146.6052 H       1  UNL111      0.0667
     48 H         126.2349  154.4352  148.3001 H       1  UNL111      0.0667
     49 H         119.3883  156.3499  144.5530 H       1  UNL111      0.1143
     50 H         117.8531  156.0438  147.6610 H       1  UNL111      0.1271
     51 H         117.8218  154.3077  148.0527 H       1  UNL111      0.1271
     52 H         115.5144  155.1562  148.3511 H       1  UNL111      0.0906
     53 H         115.5952  155.9508  146.7490 H       1  UNL111      0.0906
     54 H         114.9948  152.7386  148.4119 H       1  UNL111      0.0853
     55 H         116.6015  152.4315  147.6690 H       1  UNL111      0.0853
     56 H         113.8666  154.9142  145.5916 H       1  UNL111      0.0853
     57 H         113.3577  154.2213  147.1707 H       1  UNL111      0.0853
     58 H         115.5296  151.2118  145.7731 H       1  UNL111      0.1016
     59 H         115.0093  150.4905  147.3029 H       1  UNL111      0.1016
     60 H         112.3580  152.8802  145.3047 H       1  UNL111      0.1016
     61 H         113.9551  152.6267  144.5856 H       1  UNL111      0.1016
@<TRIPOS>UNITY_ATOM_ATTR
5 1
charge 1
6 1
charge 1
@<TRIPOS>BOND
     1     1    10    1
     2     1    18    1
     3     2    16    1
     4     3    22    1
     5     3    24    1
     6     4    28    1
     7     4    29    1
     8     5     9    1
     9     5    14    1
    10     5    21    1
    11     6    25    1
    12     6    26    1
    13     6    27    1
    14     7     8    1
    15     7    10    1
    16     7    11    1
    17     7    12    1
    18     8     9    1
    19     8    17    1
    20     9    13    1
    21    10    16    1
    22    11    14    1
    23    12    15   ar
    24    12    18   ar
    25    13    15    1
    26    15    20   ar
    27    16    19    1
    28    17    19    2
    29    18    22   ar
    30    20    23   ar
    31    22    23   ar
    32    24    25    1
    33    26    28    1
    34    27    29    1
    35     2    30    1
    36     5    31    1
    37     6    32    1
    38     8    33    1
    39     9    34    1
    40    10    35    1
    41    11    36    1
    42    11    37    1
    43    13    38    1
    44    13    39    1
    45    14    40    1
    46    14    41    1
    47    16    42    1
    48    17    43    1
    49    19    44    1
    50    20    45    1
    51    21    46    1
    52    21    47    1
    53    21    48    1
    54    23    49    1
    55    24    50    1
    56    24    51    1
    57    25    52    1
    58    25    53    1
    59    26    54    1
    60    26    55    1
    61    27    56    1
    62    27    57    1
    63    28    58    1
    64    28    59    1
    65    29    60    1
    66    29    61    1
@<TRIPOS>MOLECULE
5484063
 44 48 0 0 0
SMALL
GASTEIGER

@<TRIPOS>ATOM
      1 S         115.7295  152.4922  147.1812 S.3     1  UNL111     -0.0309
      2 O         118.8572  154.0511  147.5240 O.2     1  UNL111     -0.5417
      3 O         116.9593  152.7743  146.1501 O.3     1  UNL111     -0.2963
      4 O         118.8509  156.8382  146.7626 O.2     1  UNL111     -0.5485
      5 O         114.9760  153.7379  147.1545 O.co2   1  UNL111     -0.2368
      6 O         115.0676  151.3401  146.5797 O.2     1  UNL111     -0.3626
      7 O         116.3932  152.2013  148.4507 O.2     1  UNL111     -0.3626
      8 N         123.3012  151.4308  146.7749 N.4     1  UNL111      0.4275
      9 C         120.5911  152.4477  146.9718 C.3     1  UNL111      0.0551
     10 C         120.9645  151.4054  145.9061 C.3     1  UNL111     -0.0022
     11 C         122.4457  151.6855  145.5087 C.3     1  UNL111     -0.0206
     12 C         119.0945  152.6110  147.3337 C.3     1  UNL111      0.1016
     13 C         121.4603  152.2669  148.2320 C.3     1  UNL111     -0.0256
     14 C         120.8242  153.8064  146.3961 C.3     1  UNL111      0.0235
     15 C         122.6880  153.1062  144.9090 C.3     1  UNL111     -0.0213
     16 C         122.9549  152.3275  147.9428 C.3     1  UNL111     -0.0364
     17 C         118.1113  151.9768  146.3077 C.3     1  UNL111      0.1108
     18 C         121.8138  154.1763  145.5008 C.3     1  UNL111     -0.0425
     19 C         120.0002  151.4114  144.7484 C.2     1  UNL111     -0.0847
     20 C         119.8259  154.6651  146.7868 C.3     1  UNL111      0.1053
     21 C         118.7046  151.7046  144.9420 C.2     1  UNL111     -0.0540
     22 C         124.7808  151.3944  146.5151 C.3     1  UNL111     -0.0442
     23 C         121.8435  155.5150  145.0966 C.3     1  UNL111     -0.0573
     24 C         119.8380  155.9810  146.3932 C.3     1  UNL111      0.0917
     25 C         120.8670  156.4201  145.5620 C.3     1  UNL111     -0.0140
     26 H         118.1505  156.2880  147.1747 H       1  UNL111      0.3393
     27 H         123.0630  150.4758  147.0765 H       1  UNL111      0.1328
     28 H         120.9110  150.3971  146.3418 H       1  UNL111      0.0720
     29 H         122.7843  150.9300  144.7886 H       1  UNL111      0.0854
     30 H         118.9015  152.1489  148.3098 H       1  UNL111      0.1442
     31 H         121.2258  151.2951  148.6868 H       1  UNL111      0.0544
     32 H         121.2234  153.0248  148.9902 H       1  UNL111      0.0544
     33 H         122.4470  153.0539  143.8389 H       1  UNL111      0.0615
     34 H         123.7378  153.4037  144.9814 H       1  UNL111      0.0615
     35 H         123.3003  153.3392  147.7085 H       1  UNL111      0.0738
     36 H         123.5215  151.9628  148.8068 H       1  UNL111      0.0738
     37 H         117.8302  150.9785  146.6747 H       1  UNL111      0.1409
     38 H         120.3368  151.1453  143.7494 H       1  UNL111      0.0814
     39 H         118.0007  151.6729  144.1119 H       1  UNL111      0.0935
     40 H         125.1403  152.4082  146.3271 H       1  UNL111      0.0667
     41 H         124.9625  150.7431  145.6567 H       1  UNL111      0.0667
     42 H         125.2644  150.9793  147.4037 H       1  UNL111      0.0667
     43 H         122.5871  155.8685  144.3857 H       1  UNL111      0.0939
     44 H         120.8770  157.4552  145.2293 H       1  UNL111      0.1139
@<TRIPOS>UNITY_ATOM_ATTR
5 1
charge -1
8 1
charge 1
@<TRIPOS>BOND
     1     1     3    1
     2     1     5    1
     3     1     6    2
     4     1     7    2
     5     2    12    1
     6     2    20    1
     7     3    17    1
     8     4    24    1
     9     8    11    1
    10     8    16    1
    11     8    22    1
    12     9    10    1
    13     9    12    1
    14     9    13    1
    15     9    14    1
    16    10    11    1
    17    10    19    1
    18    11    15    1
    19    12    17    1
    20    13    16    1
    21    14    18   ar
    22    14    20   ar
    23    15    18    1
    24    17    21    1
    25    18    23   ar
    26    19    21    2
    27    20    24   ar
    28    23    25   ar
    29    24    25   ar
    30     4    26    1
    31     8    27    1
    32    10    28    1
    33    11    29    1
    34    12    30    1
    35    13    31    1
    36    13    32    1
    37    15    33    1
    38    15    34    1
    39    16    35    1
    40    16    36    1
    41    17    37    1
    42    19    38    1
    43    21    39    1
    44    22    40    1
    45    22    41    1
    46    22    42    1
    47    23    43    1
    48    25    44    1
@<TRIPOS>MOLECULE
622761
 57 61 0 0 0
SMALL
GASTEIGER

@<TRIPOS>ATOM
      1 O         120.1477  151.9546  145.9371 O.2     1  UNL111     -0.5385
      2 O         116.8025  151.5957  146.2011 O.3     1  UNL111     -0.5027
      3 O         122.5961  151.1808  147.3950 O.3     1  UNL111     -0.4563
      4 O         116.4980  150.2516  148.0373 O.2     1  UNL111     -0.3399
      5 O         123.3855  151.7253  145.2617 O.2     1  UNL111     -0.3367
      6 N         119.6400  157.0380  145.2468 N.4     1  UNL111      0.4275
      7 C         119.3045  154.2034  145.7905 C.3     1  UNL111      0.0569
      8 C         118.2853  155.2276  146.2984 C.3     1  UNL111     -0.0012
      9 C         119.0829  156.5344  146.6024 C.3     1  UNL111     -0.0204
     10 C         118.8936  152.7174  145.7602 C.3     1  UNL111      0.1047
     11 C         119.8760  154.6832  144.4364 C.3     1  UNL111     -0.0252
     12 C         120.4298  154.0644  146.7569 C.3     1  UNL111      0.0253
     13 C         120.2000  156.3566  147.6799 C.3     1  UNL111     -0.0213
     14 C         120.5415  156.0556  144.5273 C.3     1  UNL111     -0.0363
     15 C         120.9313  155.0459  147.5925 C.3     1  UNL111     -0.0422
     16 C         117.8865  152.2812  146.8680 C.3     1  UNL111      0.1112
     17 C         117.4545  154.7169  147.4397 C.2     1  UNL111     -0.0823
     18 C         120.9184  152.7769  146.7216 C.3     1  UNL111      0.1148
     19 C         117.2794  153.4078  147.6703 C.2     1  UNL111     -0.0495
     20 C         120.2581  158.4104  145.3132 C.3     1  UNL111     -0.0442
     21 C         122.0383  154.7076  148.3748 C.3     1  UNL111     -0.0561
     22 C         122.0453  152.4528  147.4411 C.3     1  UNL111      0.1321
     23 C         122.6052  153.4179  148.2864 C.3     1  UNL111     -0.0054
     24 C         116.2124  150.5838  146.8965 C.2     1  UNL111      0.2172
     25 C         115.1450  149.9263  146.0625 C.3     1  UNL111      0.0573
     26 C         123.2093  150.9216  146.1702 C.2     1  UNL111      0.2291
     27 C         115.7559  149.0209  145.0120 C.3     1  UNL111     -0.0381
     28 C         123.6790  149.4849  146.1693 C.3     1  UNL111      0.0596
     29 C         124.0291  149.0063  144.7716 C.3     1  UNL111     -0.0378
     30 H         118.8177  157.1585  144.6393 H       1  UNL111      0.1328
     31 H         117.5644  155.4485  145.4973 H       1  UNL111      0.0721
     32 H         118.3929  157.3223  146.9291 H       1  UNL111      0.0854
     33 H         118.5039  152.4452  144.7711 H       1  UNL111      0.1477
     34 H         119.0606  154.7282  143.7021 H       1  UNL111      0.0545
     35 H         120.6076  153.9710  144.0329 H       1  UNL111      0.0545
     36 H         119.7170  156.3878  148.6655 H       1  UNL111      0.0615
     37 H         120.9152  157.1837  147.6533 H       1  UNL111      0.0615
     38 H         121.4989  156.0252  145.0567 H       1  UNL111      0.0738
     39 H         120.7165  156.4578  143.5233 H       1  UNL111      0.0738
     40 H         118.3947  151.5941  147.5566 H       1  UNL111      0.1530
     41 H         116.9304  155.4314  148.0731 H       1  UNL111      0.0821
     42 H         116.6478  153.0976  148.5036 H       1  UNL111      0.0975
     43 H         121.2240  158.3462  145.8185 H       1  UNL111      0.0667
     44 H         119.5707  159.0691  145.8496 H       1  UNL111      0.0667
     45 H         120.3882  158.7656  144.2872 H       1  UNL111      0.0667
     46 H         122.4720  155.4258  149.0686 H       1  UNL111      0.0940
     47 H         123.4727  153.1670  148.8929 H       1  UNL111      0.1154
     48 H         114.5206  150.7010  145.6043 H       1  UNL111      0.0842
     49 H         114.4952  149.3491  146.7295 H       1  UNL111      0.0842
     50 H         116.3870  149.5878  144.3195 H       1  UNL111      0.0335
     51 H         114.9715  148.5256  144.4318 H       1  UNL111      0.0335
     52 H         116.3806  148.2498  145.4749 H       1  UNL111      0.0335
     53 H         122.8783  148.8531  146.5687 H       1  UNL111      0.0846
     54 H         124.5539  149.4076  146.8228 H       1  UNL111      0.0846
     55 H         123.1675  149.0917  144.1010 H       1  UNL111      0.0335
     56 H         124.3434  147.9584  144.7950 H       1  UNL111      0.0335
     57 H         124.8453  149.5983  144.3446 H       1  UNL111      0.0335
@<TRIPOS>UNITY_ATOM_ATTR
6 1
charge 1
@<TRIPOS>BOND
     1     1    10    1
     2     1    18    1
     3     2    16    1
     4     2    24    1
     5     3    22    1
     6     3    26    1
     7     4    24    2
     8     5    26    2
     9     6     9    1
    10     6    14    1
    11     6    20    1
    12     7     8    1
    13     7    10    1
    14     7    11    1
    15     7    12    1
    16     8     9    1
    17     8    17    1
    18     9    13    1
    19    10    16    1
    20    11    14    1
    21    12    15   ar
    22    12    18   ar
    23    13    15    1
    24    15    21   ar
    25    16    19    1
    26    17    19    2
    27    18    22   ar
    28    21    23   ar
    29    22    23   ar
    30    24    25    1
    31    25    27    1
    32    26    28    1
    33    28    29    1
    34     6    30    1
    35     8    31    1
    36     9    32    1
    37    10    33    1
    38    11    34    1
    39    11    35    1
    40    13    36    1
    41    13    37    1
    42    14    38    1
    43    14    39    1
    44    16    40    1
    45    17    41    1
    46    19    42    1
    47    20    43    1
    48    20    44    1
    49    20    45    1
    50    21    46    1
    51    23    47    1
    52    25    48    1
    53    25    49    1
    54    27    50    1
    55    27    51    1
    56    27    52    1
    57    28    53    1
    58    28    54    1
    59    29    55    1
    60    29    56    1
    61    29    57    1
@<TRIPOS>MOLECULE
5488489
 40 44 0 0 0
SMALL
GASTEIGER

@<TRIPOS>ATOM
      1 O         117.6831  153.5576  145.1723 O.2     1  UNL111     -0.5433
      2 O         116.7307  154.8256  147.2425 O.3     1  UNL111     -0.4348
      3 O         122.3578  151.3938  147.9115 O.2     1  UNL111     -0.3925
      4 O         116.4054  150.9572  145.5856 O.2     1  UNL111     -0.5484
      5 N         122.8861  153.6639  145.7429 N.4     1  UNL111      0.4365
      6 C         119.9838  154.0657  145.7591 C.3     1  UNL111      0.0612
      7 C         120.8868  154.6550  146.8446 C.3     1  UNL111      0.0181
      8 C         118.5668  154.6675  145.5841 C.3     1  UNL111      0.0913
      9 C         122.0454  153.6428  147.0524 C.3     1  UNL111      0.0620
     10 C         120.7695  153.9952  144.4276 C.3     1  UNL111     -0.0242
     11 C         119.5482  152.7023  146.1763 C.3     1  UNL111      0.0498
     12 C         122.0981  153.2357  144.5243 C.3     1  UNL111     -0.0320
     13 C         117.9796  155.3798  146.8455 C.3     1  UNL111      0.0606
     14 C         120.1461  155.0333  148.0937 C.2     1  UNL111     -0.0828
     15 C         120.2521  151.7909  146.9383 C.3     1  UNL111      0.0547
     16 C         118.2580  152.4595  145.7630 C.3     1  UNL111      0.1100
     17 C         121.5913  152.2062  147.4049 C.2     1  UNL111      0.1365
     18 C         118.8474  155.3647  148.0705 C.2     1  UNL111     -0.0667
     19 C         124.1653  152.8664  145.8839 C.3     1  UNL111     -0.0399
     20 C         119.6714  150.5526  147.2063 C.3     1  UNL111     -0.0308
     21 C         117.6650  151.2407  146.0042 C.3     1  UNL111      0.0929
     22 C         118.3769  150.2761  146.7225 C.3     1  UNL111     -0.0092
     23 H         116.3104  154.4431  146.4514 H       1  UNL111      0.2424
     24 H         116.0582  151.7440  145.1279 H       1  UNL111      0.3393
     25 H         123.1926  154.6355  145.5987 H       1  UNL111      0.1393
     26 H         121.3220  155.5977  146.4800 H       1  UNL111      0.0774
     27 H         118.5640  155.3908  144.7586 H       1  UNL111      0.1418
     28 H         122.7088  154.0034  147.8481 H       1  UNL111      0.1209
     29 H         120.9791  155.0197  144.0918 H       1  UNL111      0.0545
     30 H         120.1649  153.5336  143.6362 H       1  UNL111      0.0545
     31 H         121.9391  152.1542  144.5897 H       1  UNL111      0.0746
     32 H         122.7226  153.4430  143.6486 H       1  UNL111      0.0746
     33 H         117.7924  156.4295  146.5897 H       1  UNL111      0.1221
     34 H         120.6842  155.1031  149.0390 H       1  UNL111      0.0818
     35 H         118.3608  155.6726  148.9967 H       1  UNL111      0.0909
     36 H         123.9255  151.8015  145.9142 H       1  UNL111      0.0675
     37 H         124.6709  153.1918  146.7963 H       1  UNL111      0.0675
     38 H         124.7875  153.0916  145.0134 H       1  UNL111      0.0675
     39 H         120.1997  149.8017  147.7911 H       1  UNL111      0.1001
     40 H         117.9138  149.3132  146.9313 H       1  UNL111      0.1146
@<TRIPOS>UNITY_ATOM_ATTR
5 1
charge 1
@<TRIPOS>BOND
     1     1     8    1
     2     1    16    1
     3     2    13    1
     4     3    17    2
     5     4    21    1
     6     5     9    1
     7     5    12    1
     8     5    19    1
     9     6     7    1
    10     6     8    1
    11     6    10    1
    12     6    11    1
    13     7     9    1
    14     7    14    1
    15     8    13    1
    16     9    17    1
    17    10    12    1
    18    11    15   ar
    19    11    16   ar
    20    13    18    1
    21    14    18    2
    22    15    17    1
    23    15    20   ar
    24    16    21   ar
    25    20    22   ar
    26    21    22   ar
    27     2    23    1
    28     4    24    1
    29     5    25    1
    30     7    26    1
    31     8    27    1
    32     9    28    1
    33    10    29    1
    34    10    30    1
    35    12    31    1
    36    12    32    1
    37    13    33    1
    38    14    34    1
    39    18    35    1
    40    19    36    1
    41    19    37    1
    42    19    38    1
    43    20    39    1
    44    22    40    1
@<TRIPOS>MOLECULE
5464303
 46 50 0 0 0
SMALL
GASTEIGER

@<TRIPOS>ATOM
      1 O         117.9748  153.0595  145.1539 O.3     1  UNL111     -0.5449
      2 O         117.6277  154.1894  147.6711 O.3     1  UNL111     -0.4393
      3 O         116.8494  150.4338  145.7846 O.3     1  UNL111     -0.5485
      4 N         123.0897  153.3709  145.8984 N.4     1  UNL111      0.4269
      5 C         120.2105  153.7547  145.7661 C.3     1  UNL111      0.0480
      6 C         121.0898  154.5672  146.7179 C.3     1  UNL111     -0.0177
      7 C         118.7790  154.2564  145.4717 C.3     1  UNL111      0.0855
      8 C         122.2503  153.6432  147.1715 C.3     1  UNL111     -0.0255
      9 C         121.0228  153.4714  144.4792 C.3     1  UNL111     -0.0271
     10 C         119.8259  152.4500  146.3594 C.ar    1  UNL111      0.0218
     11 C         118.1036  155.0581  146.6349 C.3     1  UNL111      0.0441
     12 C         120.3156  155.2161  147.8650 C.3     1  UNL111     -0.0392
     13 C         119.1122  155.9960  147.3159 C.3     1  UNL111     -0.0220
     14 C         121.7884  152.3234  147.8706 C.3     1  UNL111     -0.0225
     15 C         122.3296  152.7246  144.7588 C.3     1  UNL111     -0.0368
     16 C         120.5528  151.7100  147.2716 C.ar    1  UNL111     -0.0430
     17 C         118.5867  152.0674  145.8881 C.ar    1  UNL111      0.1046
     18 C         116.8956  155.8412  146.1151 C.3     1  UNL111     -0.0304
     19 C         124.3919  152.6622  146.1692 C.3     1  UNL111     -0.0445
     20 C         120.0165  150.4774  147.6507 C.ar    1  UNL111     -0.0573
     21 C         118.0592  150.8493  146.2385 C.ar    1  UNL111      0.0917
     22 C         118.7830  150.0409  147.1165 C.ar    1  UNL111     -0.0140
     23 H         116.9534  153.6001  147.2833 H       1  UNL111      0.2411
     24 H         116.5129  151.1238  145.1835 H       1  UNL111      0.3393
     25 H         123.3734  154.2988  145.5559 H       1  UNL111      0.1324
     26 H         121.5203  155.4084  146.1529 H       1  UNL111      0.0620
     27 H         118.7980  154.8874  144.5734 H       1  UNL111      0.1405
     28 H         122.9247  154.1917  147.8400 H       1  UNL111      0.0835
     29 H         121.2543  154.4250  143.9860 H       1  UNL111      0.0541
     30 H         120.4399  152.8901  143.7530 H       1  UNL111      0.0541
     31 H         120.9763  155.9070  148.4027 H       1  UNL111      0.0397
     32 H         119.9852  154.4724  148.5984 H       1  UNL111      0.0397
     33 H         118.6327  156.5108  148.1581 H       1  UNL111      0.0492
     34 H         119.4548  156.7664  146.6141 H       1  UNL111      0.0492
     35 H         121.5503  152.5684  148.9139 H       1  UNL111      0.0613
     36 H         122.5937  151.5838  147.8978 H       1  UNL111      0.0613
     37 H         122.1640  151.6739  145.0169 H       1  UNL111      0.0738
     38 H         122.9805  152.7623  143.8783 H       1  UNL111      0.0738
     39 H         116.1520  155.1674  145.6748 H       1  UNL111      0.0424
     40 H         117.1874  156.5764  145.3583 H       1  UNL111      0.0424
     41 H         116.3906  156.3680  146.9329 H       1  UNL111      0.0424
     42 H         124.1905  151.6135  146.3975 H       1  UNL111      0.0667
     43 H         124.8872  153.1640  147.0041 H       1  UNL111      0.0667
     44 H         125.0071  152.7439  145.2689 H       1  UNL111      0.0667
     45 H         120.5240  149.8470  148.3787 H       1  UNL111      0.0939
     46 H         118.3703  149.0816  147.4226 H       1  UNL111      0.1139
@<TRIPOS>UNITY_ATOM_ATTR
4 1
charge 1
@<TRIPOS>BOND
     1     1     7    1
     2     1    17    1
     3     2    11    1
     4     3    21    1
     5     4     8    1
     6     4    15    1
     7     4    19    1
     8     5     6    1
     9     5     7    1
    10     5     9    1
    11     5    10    1
    12     6     8    1
    13     6    12    1
    14     7    11    1
    15     8    14    1
    16     9    15    1
    17    10    16   ar
    18    10    17   ar
    19    11    13    1
    20    11    18    1
    21    12    13    1
    22    14    16    1
    23    16    20   ar
    24    17    21   ar
    25    20    22   ar
    26    21    22   ar
    27     2    23    1
    28     3    24    1
    29     4    25    1
    30     6    26    1
    31     7    27    1
    32     8    28    1
    33     9    29    1
    34     9    30    1
    35    12    31    1
    36    12    32    1
    37    13    33    1
    38    13    34    1
    39    14    35    1
    40    14    36    1
    41    15    37    1
    42    15    38    1
    43    18    39    1
    44    18    40    1
    45    18    41    1
    46    19    42    1
    47    19    43    1
    48    19    44    1
    49    20    45    1
    50    22    46    1
@<TRIPOS>MOLECULE
5359271
 47 51 0 0 0
SMALL
GASTEIGER

@<TRIPOS>ATOM
      1 O         118.6597  152.0020  147.7018 O.3     1  UNL111     -0.5437
      2 O         118.5061  150.3024  145.7095 O.3     1  UNL111     -0.4348
      3 O         116.4033  153.5336  146.9609 O.3     1  UNL111     -0.5661
      4 N         123.2553  154.2505  147.0120 N.4     1  UNL111      0.4275
      5 C         120.9520  152.4800  147.1363 C.3     1  UNL111      0.0532
      6 C         122.1399  152.1693  146.2197 C.3     1  UNL111     -0.0026
      7 C         122.7061  153.5429  145.7455 C.3     1  UNL111     -0.0206
      8 C         119.9522  151.3475  147.4441 C.3     1  UNL111      0.0902
      9 C         121.4724  153.1827  148.4113 C.3     1  UNL111     -0.0259
     10 C         119.9838  153.3913  146.4633 C.ar    1  UNL111      0.0235
     11 C         121.6745  154.4213  144.9694 C.3     1  UNL111     -0.0213
     12 C         122.2330  154.4741  148.1065 C.3     1  UNL111     -0.0364
     13 C         120.2762  154.3489  145.5145 C.ar    1  UNL111     -0.0425
     14 C         119.7922  150.2708  146.3225 C.3     1  UNL111      0.0605
     15 C         121.8146  151.2020  145.1204 C.2     1  UNL111     -0.0869
     16 C         118.6985  153.1199  146.8920 C.ar    1  UNL111      0.1063
     17 C         120.7777  150.3552  145.1922 C.2     1  UNL111     -0.0672
     18 C         119.2076  155.1141  145.0493 C.ar    1  UNL111     -0.0570
     19 C         124.0384  155.5036  146.7182 C.3     1  UNL111     -0.0442
     20 C         117.6240  153.8734  146.4624 C.ar    1  UNL111      0.0937
     21 C         117.8964  154.8903  145.5353 C.ar    1  UNL111     -0.0127
     22 C         115.2873  154.3211  146.5495 C.3     1  UNL111      0.0338
     23 C         114.0553  153.7978  147.2655 C.3     1  UNL111     -0.0340
     24 H         117.8835  150.6817  146.3601 H       1  UNL111      0.2424
     25 H         123.9515  153.6029  147.4064 H       1  UNL111      0.1328
     26 H         122.9234  151.6672  146.8072 H       1  UNL111      0.0720
     27 H         123.5883  153.3831  145.1130 H       1  UNL111      0.0854
     28 H         120.2476  150.8337  148.3679 H       1  UNL111      0.1417
     29 H         122.1365  152.4948  148.9514 H       1  UNL111      0.0544
     30 H         120.6539  153.4188  149.1037 H       1  UNL111      0.0544
     31 H         121.6349  154.0492  143.9371 H       1  UNL111      0.0615
     32 H         121.9988  155.4645  144.9159 H       1  UNL111      0.0615
     33 H         121.5708  155.2857  147.7890 H       1  UNL111      0.0738
     34 H         122.7820  154.8069  148.9943 H       1  UNL111      0.0738
     35 H         119.8917  149.2817  146.7847 H       1  UNL111      0.1221
     36 H         122.4730  151.1431  144.2549 H       1  UNL111      0.0812
     37 H         120.6072  149.6556  144.3737 H       1  UNL111      0.0909
     38 H         119.3594  155.8760  144.2863 H       1  UNL111      0.0939
     39 H         123.3490  156.2998  146.4301 H       1  UNL111      0.0667
     40 H         124.7492  155.2828  145.9182 H       1  UNL111      0.0667
     41 H         124.5777  155.7786  147.6289 H       1  UNL111      0.0667
     42 H         117.0994  155.5101  145.1327 H       1  UNL111      0.1142
     43 H         115.1393  154.2329  145.4671 H       1  UNL111      0.1121
     44 H         115.4406  155.3713  146.8240 H       1  UNL111      0.1121
     45 H         113.8823  152.7457  147.0162 H       1  UNL111      0.0424
     46 H         113.1691  154.3765  146.9902 H       1  UNL111      0.0424
     47 H         114.1890  153.8504  148.3512 H       1  UNL111      0.0424
@<TRIPOS>UNITY_ATOM_ATTR
4 1
charge 1
@<TRIPOS>BOND
     1     1     8    1
     2     1    16    1
     3     2    14    1
     4     3    20    1
     5     3    22    1
     6     4     7    1
     7     4    12    1
     8     4    19    1
     9     5     6    1
    10     5     8    1
    11     5     9    1
    12     5    10    1
    13     6     7    1
    14     6    15    1
    15     7    11    1
    16     8    14    1
    17     9    12    1
    18    10    13   ar
    19    10    16   ar
    20    11    13    1
    21    13    18   ar
    22    14    17    1
    23    15    17    2
    24    16    20   ar
    25    18    21   ar
    26    20    21   ar
    27    22    23    1
    28     2    24    1
    29     4    25    1
    30     6    26    1
    31     7    27    1
    32     8    28    1
    33     9    29    1
    34     9    30    1
    35    11    31    1
    36    11    32    1
    37    12    33    1
    38    12    34    1
    39    14    35    1
    40    15    36    1
    41    17    37    1
    42    18    38    1
    43    19    39    1
    44    19    40    1
    45    19    41    1
    46    21    42    1
    47    22    43    1
    48    22    44    1
    49    23    45    1
    50    23    46    1
    51    23    47    1
@<TRIPOS>MOLECULE
117065144
 28 32 0 0 0
SMALL
GASTEIGER

@<TRIPOS>ATOM
      1 O         117.5769  152.7092  146.8985 O.2     1  UNL111     -0.5350
      2 O         118.7401  149.6335  147.5072 O.3     1  UNL111     -0.2745
      3 O         116.0282  155.2621  146.3816 O.co2   1  UNL111     -0.7919
      4 N         122.9303  152.9408  146.6368 N.4     1  UNL111      0.4353
      5 C         119.9876  152.6660  146.8758 C.3     1  UNL111      0.0914
      6 C         120.8673  152.2484  145.6690 C.3     1  UNL111      0.0646
      7 C         121.9825  153.1815  145.5558 C.3     1  UNL111      0.0386
      8 C         118.7075  151.8683  147.0542 C.3     1  UNL111      0.1808
      9 C         120.8473  152.6528  148.1640 C.3     1  UNL111     -0.0096
     10 C         119.4197  154.0132  146.5466 C.2     1  UNL111      0.0221
     11 C         121.4195  154.5196  145.4962 C.3     1  UNL111      0.0625
     12 C         122.2864  153.1040  147.9388 C.3     1  UNL111     -0.0176
     13 C         120.1487  155.0221  145.9232 C.2     1  UNL111     -0.0038
     14 C         118.7225  150.4710  146.5720 C.3     1  UNL111      0.2102
     15 C         120.6478  150.9532  145.1649 C.2     1  UNL111     -0.0051
     16 C         118.0351  154.0068  146.6243 C.2     1  UNL111      0.0491
     17 C         119.7322  150.2896  145.5631 C.2     1  UNL111      0.0423
     18 C         124.1431  153.7983  146.4974 C.3     1  UNL111     -0.0370
     19 C         119.4819  156.1492  145.5155 C.2     1  UNL111     -0.0117
     20 C         117.2925  155.1417  146.2821 C.2     1  UNL111     -0.0514
     21 C         118.0935  156.2025  145.7630 C.2     1  UNL111     -0.0254
     22 H         123.2193  151.9509  146.5485 H       1  UNL111      0.1448
     23 H         120.8994  151.6390  148.5815 H       1  UNL111      0.0600
     24 H         120.3994  153.2912  148.9362 H       1  UNL111      0.0600
     25 H         122.8642  153.3655  148.8237 H       1  UNL111      0.0964
     26 H         123.8822  154.8513  146.6466 H       1  UNL111      0.0683
     27 H         124.5699  153.6381  145.5021 H       1  UNL111      0.0683
     28 H         124.8695  153.4808  147.2525 H       1  UNL111      0.0683
@<TRIPOS>UNITY_ATOM_ATTR
3 1
charge -1
4 1
charge 1
@<TRIPOS>BOND
     1     1     8    1
     2     1    16    1
     3     2    14    1
     4     3    20    1
     5     4     7    1
     6     4    12    1
     7     4    18    1
     8     5     6    1
     9     5     8    1
    10     5     9    1
    11     5    10    1
    12     6     7    1
    13     6    15    1
    14     7    11    1
    15     8    14    1
    16     9    12    1
    17    10    13    2
    18    10    16    1
    19    11    13    1
    20    13    19    1
    21    14    17    1
    22    15    17    2
    23    16    20    2
    24    19    21    2
    25    20    21    1
    26     4    22    1
    27     9    23    1
    28     9    24    1
    29    12    25    1
    30    18    26    1
    31    18    27    1
    32    18    28    1
@<TRIPOS>MOLECULE
5488579
 52 57 0 0 0
SMALL
GASTEIGER

@<TRIPOS>ATOM
      1 O         119.8486  152.3393  144.9710 O.2     1  UNL111     -0.5395
      2 O         118.0336  153.8076  146.1733 O.3     1  UNL111     -0.4921
      3 O         119.4018  149.5997  145.8301 O.2     1  UNL111     -0.5485
      4 O         116.8570  155.7707  146.2910 O.2     1  UNL111     -0.3202
      5 N         124.5367  154.3194  146.1128 N.4     1  UNL111      0.4275
      6 N         113.3212  153.5837  146.7181 N.pl3   1  UNL111     -0.3003
      7 C         121.7277  153.7200  145.6604 C.3     1  UNL111      0.0568
      8 C         122.1546  154.7803  146.6861 C.3     1  UNL111     -0.0012
      9 C         123.5203  154.3108  147.2798 C.3     1  UNL111     -0.0204
     10 C         120.2643  153.7425  145.1496 C.3     1  UNL111      0.1049
     11 C         122.7462  153.6626  144.5019 C.3     1  UNL111     -0.0252
     12 C         121.6795  152.3911  146.3381 C.3     1  UNL111      0.0241
     13 C         123.4542  152.9269  147.9987 C.3     1  UNL111     -0.0213
     14 C         124.1772  153.4002  144.9679 C.3     1  UNL111     -0.0363
     15 C         122.4958  151.9542  147.3678 C.3     1  UNL111     -0.0424
     16 C         119.2650  154.5402  146.0452 C.3     1  UNL111      0.1137
     17 C         121.0861  155.0367  147.7143 C.2     1  UNL111     -0.0822
     18 C         120.6278  151.6461  145.8573 C.3     1  UNL111      0.1061
     19 C         119.7843  154.9039  147.4173 C.2     1  UNL111     -0.0491
     20 C         125.9677  154.1345  146.5497 C.3     1  UNL111     -0.0442
     21 C         122.2853  150.6560  147.8418 C.3     1  UNL111     -0.0573
     22 C         120.4185  150.3640  146.3064 C.3     1  UNL111      0.0919
     23 C         121.2602  149.8564  147.2952 C.3     1  UNL111     -0.0140
     24 C         116.9042  154.5519  146.2651 C.2     1  UNL111      0.2703
     25 C         115.7120  153.6840  146.3486 C.3     1  UNL111      0.0999
     26 C         115.7443  152.3010  146.1505 C.3     1  UNL111     -0.0263
     27 C         114.4848  154.2728  146.6254 C.3     1  UNL111      0.0209
     28 C         114.5595  151.5707  146.2358 C.3     1  UNL111     -0.0510
     29 C         113.3846  152.2492  146.5202 C.3     1  UNL111     -0.0230
     30 H         118.9460  150.1322  145.1521 H       1  UNL111      0.3393
     31 H         124.5125  155.2751  145.7303 H       1  UNL111      0.1328
     32 H         122.3165  155.7405  146.1750 H       1  UNL111      0.0721
     33 H         123.8970  155.0639  147.9831 H       1  UNL111      0.0854
     34 H         120.2223  154.1867  144.1463 H       1  UNL111      0.1477
     35 H         122.7190  154.6180  143.9611 H       1  UNL111      0.0545
     36 H         122.4737  152.8902  143.7709 H       1  UNL111      0.0545
     37 H         123.0978  153.1065  149.0218 H       1  UNL111      0.0615
     38 H         124.4434  152.4688  148.0855 H       1  UNL111      0.0615
     39 H         124.3283  152.3685  145.3008 H       1  UNL111      0.0738
     40 H         124.8824  153.6066  144.1553 H       1  UNL111      0.0738
     41 H         119.0791  155.4902  145.5247 H       1  UNL111      0.1535
     42 H         121.3654  155.3815  148.7086 H       1  UNL111      0.0821
     43 H         119.0398  155.1469  148.1746 H       1  UNL111      0.0975
     44 H         126.1247  153.0939  146.8404 H       1  UNL111      0.0667
     45 H         126.1610  154.8148  147.3827 H       1  UNL111      0.0667
     46 H         126.6086  154.3938  145.7025 H       1  UNL111      0.0667
     47 H         122.8844  150.2542  148.6572 H       1  UNL111      0.0939
     48 H         121.0964  148.8494  147.6736 H       1  UNL111      0.1139
     49 H         116.6733  151.7845  145.9281 H       1  UNL111      0.1017
     50 H         114.3905  155.3441  146.7882 H       1  UNL111      0.1456
     51 H         114.5505  150.4964  146.0838 H       1  UNL111      0.0990
     52 H         112.4363  151.7234  146.5978 H       1  UNL111      0.1342
@<TRIPOS>UNITY_ATOM_ATTR
5 1
charge 1
@<TRIPOS>BOND
     1     1    10    1
     2     1    18    1
     3     2    16    1
     4     2    24    1
     5     3    22    1
     6     4    24    2
     7     5     9    1
     8     5    14    1
     9     5    20    1
    10     6    27   ar
    11     6    29   ar
    12     7     8    1
    13     7    10    1
    14     7    11    1
    15     7    12    1
    16     8     9    1
    17     8    17    1
    18     9    13    1
    19    10    16    1
    20    11    14    1
    21    12    15   ar
    22    12    18   ar
    23    13    15    1
    24    15    21   ar
    25    16    19    1
    26    17    19    2
    27    18    22   ar
    28    21    23   ar
    29    22    23   ar
    30    24    25    1
    31    25    26   ar
    32    25    27   ar
    33    26    28   ar
    34    28    29   ar
    35     3    30    1
    36     5    31    1
    37     8    32    1
    38     9    33    1
    39    10    34    1
    40    11    35    1
    41    11    36    1
    42    13    37    1
    43    13    38    1
    44    14    39    1
    45    14    40    1
    46    16    41    1
    47    17    42    1
    48    19    43    1
    49    20    44    1
    50    20    45    1
    51    20    46    1
    52    21    47    1
    53    23    48    1
    54    26    49    1
    55    27    50    1
    56    28    51    1
    57    29    52    1
@<TRIPOS>MOLECULE
520352
 46 50 0 0 0
SMALL
GASTEIGER

@<TRIPOS>ATOM
      1 O         118.6995  154.2084  147.4867 O.2     1  UNL111     -0.5395
      2 O         116.8133  151.8010  145.8868 O.3     1  UNL111     -0.5034
      3 O         119.1982  157.0626  147.1422 O.2     1  UNL111     -0.5485
      4 O         115.7229  153.4637  147.0291 O.2     1  UNL111     -0.3412
      5 N         122.9148  151.2451  147.0535 N.4     1  UNL111      0.4275
      6 C         120.2586  152.4632  146.9151 C.3     1  UNL111      0.0568
      7 C         120.6926  151.4371  145.8656 C.3     1  UNL111     -0.0012
      8 C         122.2349  151.5910  145.7035 C.3     1  UNL111     -0.0204
      9 C         118.7546  152.8032  147.0265 C.3     1  UNL111      0.1046
     10 C         120.8790  152.0879  148.2793 C.3     1  UNL111     -0.0252
     11 C         120.7323  153.8221  146.5261 C.3     1  UNL111      0.0241
     12 C         122.6908  153.0104  145.2323 C.3     1  UNL111     -0.0213
     13 C         122.4051  152.0347  148.2424 C.3     1  UNL111     -0.0363
     14 C         121.8750  154.1326  145.8113 C.3     1  UNL111     -0.0424
     15 C         117.9423  152.6822  145.6982 C.3     1  UNL111      0.1110
     16 C         119.9182  151.5469  144.5825 C.2     1  UNL111     -0.0823
     17 C         119.8234  154.7703  146.9386 C.3     1  UNL111      0.1061
     18 C         118.6955  152.0951  144.5291 C.2     1  UNL111     -0.0495
     19 C         122.9752  149.7624  147.3281 C.3     1  UNL111     -0.0442
     20 C         122.1343  155.4877  145.5919 C.3     1  UNL111     -0.0573
     21 C         120.0723  156.1054  146.7397 C.3     1  UNL111      0.0919
     22 C         121.2425  156.4711  146.0738 C.3     1  UNL111     -0.0140
     23 C         115.7509  152.3437  146.5434 C.2     1  UNL111      0.2147
     24 C         114.6311  151.3523  146.6215 C.3     1  UNL111      0.0550
     25 H         118.4250  156.6031  147.5235 H       1  UNL111      0.3393
     26 H         123.9010  151.5227  146.9497 H       1  UNL111      0.1328
     27 H         120.4770  150.4261  146.2360 H       1  UNL111      0.0721
     28 H         122.6270  150.8567  144.9890 H       1  UNL111      0.0854
     29 H         118.2835  152.1984  147.8111 H       1  UNL111      0.1477
     30 H         120.4886  151.1114  148.5941 H       1  UNL111      0.0545
     31 H         120.5797  152.7978  149.0615 H       1  UNL111      0.0545
     32 H         122.5784  153.0552  144.1414 H       1  UNL111      0.0615
     33 H         123.7523  153.1656  145.4577 H       1  UNL111      0.0615
     34 H         122.8467  153.0338  148.1696 H       1  UNL111      0.0738
     35 H         122.8081  151.5723  149.1502 H       1  UNL111      0.0738
     36 H         117.5747  153.6670  145.3792 H       1  UNL111      0.1530
     37 H         120.3363  151.1157  143.6740 H       1  UNL111      0.0821
     38 H         118.1677  152.1170  143.5758 H       1  UNL111      0.0975
     39 H         121.9698  149.3934  147.5389 H       1  UNL111      0.0667
     40 H         123.6310  149.6080  148.1892 H       1  UNL111      0.0667
     41 H         123.4004  149.2703  146.4498 H       1  UNL111      0.0667
     42 H         123.0090  155.8065  145.0274 H       1  UNL111      0.0939
     43 H         121.4467  157.5247  145.8930 H       1  UNL111      0.1139
     44 H         114.3889  150.9846  145.6210 H       1  UNL111      0.0793
     45 H         113.7425  151.8409  147.0310 H       1  UNL111      0.0793
     46 H         114.9158  150.5251  147.2762 H       1  UNL111      0.0793
@<TRIPOS>UNITY_ATOM_ATTR
5 1
charge 1
@<TRIPOS>BOND
     1     1     9    1
     2     1    17    1
     3     2    15    1
     4     2    23    1
     5     3    21    1
     6     4    23    2
     7     5     8    1
     8     5    13    1
     9     5    19    1
    10     6     7    1
    11     6     9    1
    12     6    10    1
    13     6    11    1
    14     7     8    1
    15     7    16    1
    16     8    12    1
    17     9    15    1
    18    10    13    1
    19    11    14   ar
    20    11    17   ar
    21    12    14    1
    22    14    20   ar
    23    15    18    1
    24    16    18    2
    25    17    21   ar
    26    20    22   ar
    27    21    22   ar
    28    23    24    1
    29     3    25    1
    30     5    26    1
    31     7    27    1
    32     8    28    1
    33     9    29    1
    34    10    30    1
    35    10    31    1
    36    12    32    1
    37    12    33    1
    38    13    34    1
    39    13    35    1
    40    15    36    1
    41    16    37    1
    42    18    38    1
    43    19    39    1
    44    19    40    1
    45    19    41    1
    46    20    42    1
    47    22    43    1
    48    24    44    1
    49    24    45    1
    50    24    46    1
@<TRIPOS>MOLECULE
273032
 43 47 0 0 0
SMALL
GASTEIGER

@<TRIPOS>ATOM
      1 O         121.8887  153.4527  147.5763 O.3     1  UNL111     -0.5457
      2 O         122.3692  156.2892  146.4941 O.3     1  UNL111     -0.4416
      3 O         123.3982  151.0252  146.9509 O.3     1  UNL111     -0.5485
      4 N         116.7603  153.0323  146.9681 N.4     1  UNL111      0.4269
      5 C         119.5623  153.7904  147.0045 C.3     1  UNL111      0.0474
      6 C         118.5751  154.4145  146.0148 C.3     1  UNL111     -0.0179
      7 C         120.9065  154.5062  147.2485 C.3     1  UNL111      0.0840
      8 C         117.5285  153.3248  145.6590 C.3     1  UNL111     -0.0256
      9 C         118.8213  153.4636  148.3203 C.3     1  UNL111     -0.0273
     10 C         120.1235  152.5330  146.4455 C.ar    1  UNL111      0.0216
     11 C         119.2638  155.0366  144.7959 C.3     1  UNL111     -0.0398
     12 C         121.4473  155.3009  146.0349 C.3     1  UNL111      0.0437
     13 C         118.1425  152.0319  145.0297 C.3     1  UNL111     -0.0225
     14 C         120.3479  156.0111  145.2493 C.3     1  UNL111     -0.0235
     15 C         117.6206  152.5404  148.1121 C.3     1  UNL111     -0.0369
     16 C         119.4863  151.6520  145.5913 C.ar    1  UNL111     -0.0430
     17 C         121.4245  152.3660  146.8729 C.ar    1  UNL111      0.1044
     18 C         115.5399  152.1679  146.7788 C.3     1  UNL111     -0.0445
     19 C         120.1943  150.5041  145.2284 C.ar    1  UNL111     -0.0573
     20 C         122.1228  151.2328  146.5362 C.ar    1  UNL111      0.0916
     21 C         121.5018  150.2882  145.7175 C.ar    1  UNL111     -0.0140
     22 H         123.1417  155.8200  146.8610 H       1  UNL111      0.2393
     23 H         123.6535  151.7919  147.4969 H       1  UNL111      0.3393
     24 H         116.3810  153.9396  147.2728 H       1  UNL111      0.1324
     25 H         118.0560  155.2434  146.5195 H       1  UNL111      0.0619
     26 H         120.8469  155.1668  148.1225 H       1  UNL111      0.1393
     27 H         116.7759  153.7389  144.9772 H       1  UNL111      0.0835
     28 H         118.4751  154.4014  148.7751 H       1  UNL111      0.0541
     29 H         119.4919  152.9997  149.0553 H       1  UNL111      0.0541
     30 H         118.5219  155.5725  144.1921 H       1  UNL111      0.0396
     31 H         119.7057  154.2737  144.1453 H       1  UNL111      0.0396
     32 H         122.0054  154.6470  145.3536 H       1  UNL111      0.1114
     33 H         118.2873  152.2247  143.9587 H       1  UNL111      0.0613
     34 H         117.4563  151.1837  145.1068 H       1  UNL111      0.0613
     35 H         119.9099  156.8136  145.8568 H       1  UNL111      0.0481
     36 H         120.7882  156.5086  144.3764 H       1  UNL111      0.0481
     37 H         117.9174  151.5100  147.8926 H       1  UNL111      0.0738
     38 H         116.9903  152.5333  149.0082 H       1  UNL111      0.0738
     39 H         115.8529  151.1379  146.5960 H       1  UNL111      0.0667
     40 H         114.9666  152.5653  145.9377 H       1  UNL111      0.0667
     41 H         114.9457  152.2281  147.6948 H       1  UNL111      0.0667
     42 H         119.7620  149.7709  144.5495 H       1  UNL111      0.0939
     43 H         122.0478  149.3925  145.4269 H       1  UNL111      0.1139
@<TRIPOS>UNITY_ATOM_ATTR
4 1
charge 1
@<TRIPOS>BOND
     1     1     7    1
     2     1    17    1
     3     2    12    1
     4     3    20    1
     5     4     8    1
     6     4    15    1
     7     4    18    1
     8     5     6    1
     9     5     7    1
    10     5     9    1
    11     5    10    1
    12     6     8    1
    13     6    11    1
    14     7    12    1
    15     8    13    1
    16     9    15    1
    17    10    16   ar
    18    10    17   ar
    19    11    14    1
    20    12    14    1
    21    13    16    1
    22    16    19   ar
    23    17    20   ar
    24    19    21   ar
    25    20    21   ar
    26     2    22    1
    27     3    23    1
    28     4    24    1
    29     6    25    1
    30     7    26    1
    31     8    27    1
    32     9    28    1
    33     9    29    1
    34    11    30    1
    35    11    31    1
    36    12    32    1
    37    13    33    1
    38    13    34    1
    39    14    35    1
    40    14    36    1
    41    15    37    1
    42    15    38    1
    43    18    39    1
    44    18    40    1
    45    18    41    1
    46    19    42    1
    47    21    43    1
@<TRIPOS>MOLECULE
5462306
 42 46 0 0 0
SMALL
GASTEIGER

@<TRIPOS>ATOM
      1 O         117.8854  152.8875  145.4508 O.3     1  UNL111     -0.5315
      2 O         116.8830  155.5716  146.1716 O.2     1  UNL111     -0.5764
      3 O         116.9592  150.2081  146.0435 O.3     1  UNL111     -0.5484
      4 N         123.0774  153.8617  146.0529 N.4     1  UNL111      0.4294
      5 C         120.1812  153.6742  145.8392 C.3     1  UNL111      0.0760
      6 C         120.8754  154.3644  146.9885 C.2     1  UNL111     -0.0492
      7 C         122.1982  153.6975  147.2881 C.3     1  UNL111     -0.0050
      8 C         118.7209  154.0907  145.4957 C.3     1  UNL111      0.1260
      9 C         121.0707  153.7178  144.5817 C.3     1  UNL111     -0.0195
     10 C         119.9297  152.2860  146.3028 C.ar    1  UNL111      0.0313
     11 C         122.0100  152.1852  147.6861 C.3     1  UNL111     -0.0165
     12 C         122.4932  153.2195  144.8184 C.3     1  UNL111     -0.0339
     13 C         120.7811  151.5245  147.0951 C.ar    1  UNL111     -0.0395
     14 C         118.6481  151.8937  146.0006 C.ar    1  UNL111      0.1101
     15 C         118.1627  155.1288  146.4516 C.2     1  UNL111      0.0616
     16 C         120.2747  155.3373  147.6901 C.2     1  UNL111     -0.0564
     17 C         118.9111  155.7254  147.3980 C.2     1  UNL111     -0.0212
     18 C         120.3545  150.2388  147.4369 C.ar    1  UNL111     -0.0568
     19 C         124.5177  153.4919  146.2665 C.3     1  UNL111     -0.0431
     20 C         118.2155  150.6327  146.3389 C.ar    1  UNL111      0.0926
     21 C         119.0807  149.7871  147.0347 C.ar    1  UNL111     -0.0139
     22 C         115.9307  155.0054  147.0735 C.3     1  UNL111      0.0306
     23 H         116.5074  150.9485  145.5962 H       1  UNL111      0.3393
     24 H         123.0872  154.8753  145.8736 H       1  UNL111      0.1349
     25 H         122.7266  154.2216  148.0936 H       1  UNL111      0.0950
     26 H         118.6744  154.5255  144.4881 H       1  UNL111      0.1600
     27 H         121.1220  154.7537  144.2182 H       1  UNL111      0.0565
     28 H         120.6281  153.1269  143.7690 H       1  UNL111      0.0565
     29 H         121.8851  152.1574  148.7772 H       1  UNL111      0.0634
     30 H         122.8951  151.5871  147.4513 H       1  UNL111      0.0634
     31 H         122.5410  152.1330  144.9434 H       1  UNL111      0.0744
     32 H         123.1351  153.4975  143.9752 H       1  UNL111      0.0744
     33 H         120.7421  155.8043  148.5543 H       1  UNL111      0.0949
     34 H         118.4811  156.5209  148.0037 H       1  UNL111      0.1116
     35 H         120.9695  149.5893  148.0570 H       1  UNL111      0.0940
     36 H         124.6038  152.4070  146.3540 H       1  UNL111      0.0670
     37 H         124.8696  153.9915  147.1725 H       1  UNL111      0.0670
     38 H         125.0845  153.8499  145.4028 H       1  UNL111      0.0670
     39 H         118.7424  148.7923  147.3179 H       1  UNL111      0.1140
     40 H         114.9362  155.3424  146.7671 H       1  UNL111      0.1069
     41 H         116.1079  155.3514  148.0973 H       1  UNL111      0.1069
     42 H         115.9483  153.9114  147.0347 H       1  UNL111      0.1069
@<TRIPOS>UNITY_ATOM_ATTR
4 1
charge 1
@<TRIPOS>BOND
     1     1     8    1
     2     1    14    1
     3     2    15    1
     4     2    22    1
     5     3    20    1
     6     4     7    1
     7     4    12    1
     8     4    19    1
     9     5     6    1
    10     5     8    1
    11     5     9    1
    12     5    10    1
    13     6     7    1
    14     6    16    2
    15     7    11    1
    16     8    15    1
    17     9    12    1
    18    10    13   ar
    19    10    14   ar
    20    11    13    1
    21    13    18   ar
    22    14    20   ar
    23    15    17    2
    24    16    17    1
    25    18    21   ar
    26    20    21   ar
    27     3    23    1
    28     4    24    1
    29     7    25    1
    30     8    26    1
    31     9    27    1
    32     9    28    1
    33    11    29    1
    34    11    30    1
    35    12    31    1
    36    12    32    1
    37    16    33    1
    38    17    34    1
    39    18    35    1
    40    19    36    1
    41    19    37    1
    42    19    38    1
    43    21    39    1
    44    22    40    1
    45    22    41    1
    46    22    42    1
@<TRIPOS>MOLECULE
5492873
 42 46 0 0 0
SMALL
GASTEIGER

@<TRIPOS>ATOM
      1 O         121.7749  153.7544  147.7774 O.3     1  UNL111     -0.5420
      2 O         117.4551  155.0222  146.6695 O.3     1  UNL111     -0.4293
      3 O         122.3778  155.3000  145.7523 O.3     1  UNL111     -0.4344
      4 O         123.7107  151.6161  147.2626 O.3     1  UNL111     -0.5485
      5 N         116.8454  152.4567  146.8580 N.4     1  UNL111      0.4306
      6 C         119.4582  153.6898  147.0681 C.3     1  UNL111      0.0777
      7 C         118.4321  154.1681  146.0250 C.3     1  UNL111      0.0621
      8 C         117.6364  152.8852  145.5885 C.3     1  UNL111      0.0060
      9 C         120.6419  154.6255  147.3984 C.3     1  UNL111      0.0976
     10 C         118.7347  153.1753  148.3402 C.3     1  UNL111     -0.0182
     11 C         120.2713  152.5638  146.5282 C.ar    1  UNL111      0.0321
     12 C         118.4999  151.7369  144.9973 C.3     1  UNL111     -0.0135
     13 C         117.7034  152.0815  148.0406 C.3     1  UNL111     -0.0332
     14 C         119.8526  151.5964  145.6349 C.ar    1  UNL111     -0.0391
     15 C         121.0759  155.5927  146.2473 C.3     1  UNL111      0.0635
     16 C         119.0206  154.9733  144.9121 C.2     1  UNL111     -0.0547
     17 C         121.5509  152.6149  147.0400 C.ar    1  UNL111      0.1070
     18 C         120.1907  155.6165  145.0344 C.2     1  UNL111     -0.0572
     19 C         115.7409  151.4802  146.6007 C.3     1  UNL111     -0.0425
     20 C         120.7695  150.5919  145.3164 C.ar    1  UNL111     -0.0569
     21 C         122.4527  151.6195  146.7530 C.ar    1  UNL111      0.0920
     22 C         122.0588  150.5949  145.8917 C.ar    1  UNL111     -0.0140
     23 H         117.7184  155.9545  146.5281 H       1  UNL111      0.2466
     24 H         122.8965  154.9288  146.4890 H       1  UNL111      0.2424
     25 H         123.7956  152.3960  147.8401 H       1  UNL111      0.3393
     26 H         116.3896  153.3483  147.1306 H       1  UNL111      0.1354
     27 H         116.8541  153.1630  144.8705 H       1  UNL111      0.0988
     28 H         120.3975  155.2355  148.2775 H       1  UNL111      0.1438
     29 H         118.2310  154.0149  148.8369 H       1  UNL111      0.0564
     30 H         119.4472  152.7831  149.0779 H       1  UNL111      0.0564
     31 H         118.6685  151.9621  143.9362 H       1  UNL111      0.0636
     32 H         117.9684  150.7813  145.0419 H       1  UNL111      0.0636
     33 H         118.1701  151.1158  147.8225 H       1  UNL111      0.0743
     34 H         117.0344  151.9532  148.8987 H       1  UNL111      0.0743
     35 H         121.1173  156.6096  146.6548 H       1  UNL111      0.1225
     36 H         118.4580  155.0811  143.9862 H       1  UNL111      0.0957
     37 H         120.5598  156.2098  144.1971 H       1  UNL111      0.0931
     38 H         116.1743  150.5023  146.3807 H       1  UNL111      0.0670
     39 H         115.1463  151.8464  145.7602 H       1  UNL111      0.0670
     40 H         115.1202  151.4306  147.4993 H       1  UNL111      0.0670
     41 H         120.5140  149.8044  144.6094 H       1  UNL111      0.0939
     42 H         122.7672  149.8087  145.6374 H       1  UNL111      0.1139
@<TRIPOS>UNITY_ATOM_ATTR
5 1
charge 1
@<TRIPOS>BOND
     1     1     9    1
     2     1    17    1
     3     2     7    1
     4     3    15    1
     5     4    21    1
     6     5     8    1
     7     5    13    1
     8     5    19    1
     9     6     7    1
    10     6     9    1
    11     6    10    1
    12     6    11    1
    13     7     8    1
    14     7    16    1
    15     8    12    1
    16     9    15    1
    17    10    13    1
    18    11    14   ar
    19    11    17   ar
    20    12    14    1
    21    14    20   ar
    22    15    18    1
    23    16    18    2
    24    17    21   ar
    25    20    22   ar
    26    21    22   ar
    27     2    23    1
    28     3    24    1
    29     4    25    1
    30     5    26    1
    31     8    27    1
    32     9    28    1
    33    10    29    1
    34    10    30    1
    35    12    31    1
    36    12    32    1
    37    13    33    1
    38    13    34    1
    39    15    35    1
    40    16    36    1
    41    18    37    1
    42    19    38    1
    43    19    39    1
    44    19    40    1
    45    20    41    1
    46    22    42    1
@<TRIPOS>MOLECULE
346222
 49 53 0 0 0
SMALL
GASTEIGER

@<TRIPOS>ATOM
      1 O         119.8451  151.0025  145.3670 O.3     1  UNL111     -0.5454
      2 O         116.6841  152.6652  146.2397 O.3     1  UNL111     -0.4510
      3 O         122.1893  149.3890  145.9329 O.3     1  UNL111     -0.5485
      4 N         120.3600  156.2121  145.9779 N.4     1  UNL111      0.4269
      5 C         119.6748  153.3985  145.8192 C.3     1  UNL111      0.0476
      6 C         119.1359  154.2883  146.9456 C.3     1  UNL111     -0.0179
      7 C         118.8893  152.1068  145.4928 C.3     1  UNL111      0.0850
      8 C         120.2266  155.3537  147.2520 C.3     1  UNL111     -0.0256
      9 C         119.9282  154.2274  144.5426 C.3     1  UNL111     -0.0272
     10 C         120.9405  152.7862  146.2985 C.ar    1  UNL111      0.0216
     11 C         118.6920  153.5120  148.2055 C.3     1  UNL111     -0.0396
     12 C         117.7901  151.7925  146.5291 C.3     1  UNL111      0.0453
     13 C         121.6027  154.7478  147.6889 C.3     1  UNL111     -0.0225
     14 C         118.2779  152.0539  147.9574 C.3     1  UNL111     -0.0225
     15 C         120.8239  155.4401  144.7669 C.3     1  UNL111     -0.0369
     16 C         121.8936  153.3894  147.1034 C.ar    1  UNL111     -0.0430
     17 C         120.9973  151.4574  145.9489 C.ar    1  UNL111      0.1044
     18 C         121.1477  157.4804  146.1747 C.3     1  UNL111     -0.0445
     19 C         123.0193  152.6309  147.4366 C.ar    1  UNL111     -0.0573
     20 C         122.0991  150.7010  146.2726 C.ar    1  UNL111      0.0916
     21 C         123.1298  151.2948  147.0004 C.ar    1  UNL111     -0.0140
     22 C         115.4286  152.1374  146.6737 C.3     1  UNL111      0.0014
     23 C         114.3467  153.1348  146.3100 C.3     1  UNL111     -0.0449
     24 H         121.3698  149.1620  145.4547 H       1  UNL111      0.3393
     25 H         119.4064  156.5349  145.7611 H       1  UNL111      0.1324
     26 H         118.2403  154.8071  146.5730 H       1  UNL111      0.0619
     27 H         118.4056  152.1986  144.5111 H       1  UNL111      0.1396
     28 H         119.8675  156.0449  148.0238 H       1  UNL111      0.0835
     29 H         118.9619  154.5748  144.1525 H       1  UNL111      0.0541
     30 H         120.3736  153.6089  143.7524 H       1  UNL111      0.0541
     31 H         117.8419  154.0502  148.6460 H       1  UNL111      0.0396
     32 H         119.4648  153.5221  148.9824 H       1  UNL111      0.0396
     33 H         117.4880  150.7432  146.4220 H       1  UNL111      0.1132
     34 H         121.5725  154.6250  148.7795 H       1  UNL111      0.0613
     35 H         122.4336  155.4252  147.4728 H       1  UNL111      0.0613
     36 H         117.4988  151.7930  148.6828 H       1  UNL111      0.0484
     37 H         119.1233  151.3923  148.1808 H       1  UNL111      0.0484
     38 H         121.8729  155.1664  144.9176 H       1  UNL111      0.0738
     39 H         120.7645  156.1179  143.9082 H       1  UNL111      0.0738
     40 H         122.2064  157.2359  146.2812 H       1  UNL111      0.0667
     41 H         120.7652  157.9858  147.0649 H       1  UNL111      0.0667
     42 H         120.9891  158.1096  145.2946 H       1  UNL111      0.0667
     43 H         123.8053  153.0427  148.0671 H       1  UNL111      0.0939
     44 H         124.0014  150.7037  147.2739 H       1  UNL111      0.1139
     45 H         115.4366  151.9806  147.7565 H       1  UNL111      0.0869
     46 H         115.2373  151.1829  146.1716 H       1  UNL111      0.0869
     47 H         114.5374  154.1014  146.7881 H       1  UNL111      0.0372
     48 H         113.3625  152.7743  146.6218 H       1  UNL111      0.0372
     49 H         114.3326  153.3113  145.2294 H       1  UNL111      0.0372
@<TRIPOS>UNITY_ATOM_ATTR
4 1
charge 1
@<TRIPOS>BOND
     1     1     7    1
     2     1    17    1
     3     2    12    1
     4     2    22    1
     5     3    20    1
     6     4     8    1
     7     4    15    1
     8     4    18    1
     9     5     6    1
    10     5     7    1
    11     5     9    1
    12     5    10    1
    13     6     8    1
    14     6    11    1
    15     7    12    1
    16     8    13    1
    17     9    15    1
    18    10    16   ar
    19    10    17   ar
    20    11    14    1
    21    12    14    1
    22    13    16    1
    23    16    19   ar
    24    17    20   ar
    25    19    21   ar
    26    20    21   ar
    27    22    23    1
    28     3    24    1
    29     4    25    1
    30     6    26    1
    31     7    27    1
    32     8    28    1
    33     9    29    1
    34     9    30    1
    35    11    31    1
    36    11    32    1
    37    12    33    1
    38    13    34    1
    39    13    35    1
    40    14    36    1
    41    14    37    1
    42    15    38    1
    43    15    39    1
    44    18    40    1
    45    18    41    1
    46    18    42    1
    47    19    43    1
    48    21    44    1
    49    22    45    1
    50    22    46    1
    51    23    47    1
    52    23    48    1
    53    23    49    1
@<TRIPOS>MOLECULE
5362518
 43 47 0 0 0
SMALL
GASTEIGER

@<TRIPOS>ATOM
      1 O         118.0061  153.8455  145.2350 O.3     1  UNL111     -0.5474
      2 O         115.9821  151.8198  145.7795 O.3     1  UNL111     -0.5485
      3 N         122.9383  152.3142  146.0172 N.4     1  UNL111      0.4270
      4 C         120.3442  153.6393  145.8405 C.3     1  UNL111      0.0469
      5 C         121.3432  154.0283  146.9308 C.3     1  UNL111     -0.0145
      6 C         122.1562  152.7552  147.2774 C.3     1  UNL111     -0.0245
      7 C         119.2056  154.6394  145.5304 C.3     1  UNL111      0.0782
      8 C         121.0953  153.2148  144.5618 C.3     1  UNL111     -0.0271
      9 C         119.5093  152.5118  146.3332 C.ar    1  UNL111      0.0219
     10 C         120.6784  154.6622  148.1665 C.3     1  UNL111     -0.0310
     11 C         121.2873  151.5542  147.7885 C.3     1  UNL111     -0.0223
     12 C         122.0764  152.0714  144.7969 C.3     1  UNL111     -0.0368
     13 C         119.9138  151.4884  147.1740 C.ar    1  UNL111     -0.0429
     14 C         118.9060  155.6184  146.6511 C.2     1  UNL111     -0.0626
     15 C         118.2107  152.6638  145.9017 C.ar    1  UNL111      0.1047
     16 C         119.5774  155.6189  147.8184 C.2     1  UNL111     -0.0957
     17 C         124.1387  153.1785  145.7197 C.3     1  UNL111     -0.0444
     18 C         118.9615  150.5162  147.4885 C.ar    1  UNL111     -0.0573
     19 C         117.2685  151.7098  146.1999 C.ar    1  UNL111      0.0918
     20 C         117.7969  156.5993  146.3832 C.3     1  UNL111     -0.0386
     21 C         117.6473  150.6183  146.9830 C.ar    1  UNL111     -0.0140
     22 H         115.9105  152.6720  145.3097 H       1  UNL111      0.3393
     23 H         123.3434  151.3958  146.2466 H       1  UNL111      0.1324
     24 H         122.0153  154.7964  146.5247 H       1  UNL111      0.0638
     25 H         122.9224  152.9708  148.0314 H       1  UNL111      0.0837
     26 H         119.4434  155.2193  144.6293 H       1  UNL111      0.1383
     27 H         121.6404  154.0806  144.1636 H       1  UNL111      0.0542
     28 H         120.3937  152.9106  143.7740 H       1  UNL111      0.0542
     29 H         121.4484  155.2008  148.7327 H       1  UNL111      0.0477
     30 H         120.2697  153.9095  148.8493 H       1  UNL111      0.0477
     31 H         121.1543  151.6751  148.8712 H       1  UNL111      0.0613
     32 H         121.8108  150.6039  147.6320 H       1  UNL111      0.0613
     33 H         121.5612  151.1189  144.9573 H       1  UNL111      0.0738
     34 H         122.7423  151.9351  143.9376 H       1  UNL111      0.0738
     35 H         119.2966  156.3277  148.5977 H       1  UNL111      0.0779
     36 H         123.8033  154.1569  145.3710 H       1  UNL111      0.0667
     37 H         124.7285  152.6767  144.9479 H       1  UNL111      0.0667
     38 H         124.7297  153.2669  146.6347 H       1  UNL111      0.0667
     39 H         119.2048  149.6865  148.1498 H       1  UNL111      0.0939
     40 H         118.0151  157.1807  145.4815 H       1  UNL111      0.0400
     41 H         117.6646  157.3064  147.2089 H       1  UNL111      0.0400
     42 H         116.8466  156.0755  146.2396 H       1  UNL111      0.0400
     43 H         116.9070  149.8631  147.2395 H       1  UNL111      0.1139
@<TRIPOS>UNITY_ATOM_ATTR
3 1
charge 1
@<TRIPOS>BOND
     1     1     7    1
     2     1    15    1
     3     2    19    1
     4     3     6    1
     5     3    12    1
     6     3    17    1
     7     4     5    1
     8     4     7    1
     9     4     8    1
    10     4     9    1
    11     5     6    1
    12     5    10    1
    13     6    11    1
    14     7    14    1
    15     8    12    1
    16     9    13   ar
    17     9    15   ar
    18    10    16    1
    19    11    13    1
    20    13    18   ar
    21    14    16    2
    22    14    20    1
    23    15    19   ar
    24    18    21   ar
    25    19    21   ar
    26     2    22    1
    27     3    23    1
    28     5    24    1
    29     6    25    1
    30     7    26    1
    31     8    27    1
    32     8    28    1
    33    10    29    1
    34    10    30    1
    35    11    31    1
    36    11    32    1
    37    12    33    1
    38    12    34    1
    39    16    35    1
    40    17    36    1
    41    17    37    1
    42    17    38    1
    43    18    39    1
    44    20    40    1
    45    20    41    1
    46    20    42    1
    47    21    43    1
@<TRIPOS>MOLECULE
5459823
 39 43 0 0 0
SMALL
GASTEIGER

@<TRIPOS>ATOM
      1 O         121.8098  153.4802  147.7050 O.2     1  UNL111     -0.5288
      2 O         122.5063  155.8719  146.2364 O.2     1  UNL111     -0.3926
      3 O         123.4021  151.1287  147.0033 O.2     1  UNL111     -0.5485
      4 N         116.7258  152.9989  146.9044 N.4     1  UNL111      0.4275
      5 C         119.5104  153.8117  147.0685 C.3     1  UNL111      0.0659
      6 C         118.5570  154.4707  146.0673 C.3     1  UNL111      0.0022
      7 C         117.5354  153.3684  145.6359 C.3     1  UNL111     -0.0200
      8 C         118.7277  153.4288  148.3437 C.3     1  UNL111     -0.0236
      9 C         120.8374  154.5248  147.3762 C.3     1  UNL111      0.1435
     10 C         120.1055  152.5798  146.4798 C.3     1  UNL111      0.0263
     11 C         118.1940  152.1208  144.9641 C.3     1  UNL111     -0.0212
     12 C         117.5576  152.4855  148.0611 C.3     1  UNL111     -0.0361
     13 C         119.5164  151.7304  145.5628 C.3     1  UNL111     -0.0421
     14 C         119.2705  155.1591  144.9366 C.2     1  UNL111     -0.0705
     15 C         121.3970  152.4200  146.9360 C.3     1  UNL111      0.1091
     16 C         121.3883  155.3619  146.2111 C.2     1  UNL111      0.1527
     17 C         120.5448  155.5688  145.0034 C.2     1  UNL111     -0.0023
     18 C         115.5435  152.1016  146.6328 C.3     1  UNL111     -0.0442
     19 C         120.2578  150.6125  145.1732 C.3     1  UNL111     -0.0572
     20 C         122.1312  151.3204  146.5687 C.3     1  UNL111      0.0923
     21 C         121.5538  150.3995  145.6934 C.3     1  UNL111     -0.0139
     22 H         123.6554  151.9209  147.5150 H       1  UNL111      0.3393
     23 H         116.3010  153.8784  147.2308 H       1  UNL111      0.1328
     24 H         117.9963  155.2696  146.5752 H       1  UNL111      0.0728
     25 H         116.7953  153.7972  144.9488 H       1  UNL111      0.0855
     26 H         118.3442  154.3438  148.8144 H       1  UNL111      0.0548
     27 H         119.3810  152.9555  149.0882 H       1  UNL111      0.0548
     28 H         120.7382  155.1948  148.2385 H       1  UNL111      0.1634
     29 H         118.3829  152.3755  143.9129 H       1  UNL111      0.0615
     30 H         117.5180  151.2612  144.9637 H       1  UNL111      0.0615
     31 H         117.8874  151.4711  147.8155 H       1  UNL111      0.0739
     32 H         116.8964  152.4313  148.9329 H       1  UNL111      0.0739
     33 H         118.7090  155.3885  144.0313 H       1  UNL111      0.0849
     34 H         121.0270  156.0948  144.1838 H       1  UNL111      0.1146
     35 H         115.8993  151.0904  146.4252 H       1  UNL111      0.0667
     36 H         114.9912  152.5124  145.7841 H       1  UNL111      0.0667
     37 H         114.9118  152.1071  147.5254 H       1  UNL111      0.0667
     38 H         119.8644  149.9047  144.4455 H       1  UNL111      0.0939
     39 H         122.1289  149.5308  145.3782 H       1  UNL111      0.1139
@<TRIPOS>UNITY_ATOM_ATTR
4 1
charge 1
@<TRIPOS>BOND
     1     1     9    1
     2     1    15    1
     3     2    16    2
     4     3    20    1
     5     4     7    1
     6     4    12    1
     7     4    18    1
     8     5     6    1
     9     5     8    1
    10     5     9    1
    11     5    10    1
    12     6     7    1
    13     6    14    1
    14     7    11    1
    15     8    12    1
    16     9    16    1
    17    10    13   ar
    18    10    15   ar
    19    11    13    1
    20    13    19   ar
    21    14    17    2
    22    15    20   ar
    23    16    17    1
    24    19    21   ar
    25    20    21   ar
    26     3    22    1
    27     4    23    1
    28     6    24    1
    29     7    25    1
    30     8    26    1
    31     8    27    1
    32     9    28    1
    33    11    29    1
    34    11    30    1
    35    12    31    1
    36    12    32    1
    37    14    33    1
    38    17    34    1
    39    18    35    1
    40    18    36    1
    41    18    37    1
    42    19    38    1
    43    21    39    1
@<TRIPOS>MOLECULE
5745390
 55 60 0 0 0
SMALL
GASTEIGER

@<TRIPOS>ATOM
      1 O         119.9671  153.4064  147.5033 O.2     1  UNL111     -0.5431
      2 O         118.9701  151.0911  146.8717 O.3     1  UNL111     -0.4348
      3 O         118.6976  155.2006  145.4809 O.2     1  UNL111     -0.4839
      4 O         117.4242  154.7023  149.0261 O.co2   1  UNL111     -0.4606
      5 O         117.3368  156.4332  147.6660 O.2     1  UNL111     -0.0954
      6 O         114.1026  150.8829  145.2029 O.co2   1  UNL111     -0.4635
      7 O         113.8617  151.5587  147.2782 O.2     1  UNL111     -0.0990
      8 N         125.1147  152.9579  147.0079 N.4     1  UNL111      0.4275
      9 N         117.2509  155.2250  147.9156 N.pl3   1  UNL111      0.0151
     10 N         114.4096  151.5936  146.1684 N.pl3   1  UNL111     -0.0021
     11 C         122.2481  152.6125  147.3610 C.3     1  UNL111      0.0533
     12 C         123.1433  151.4346  146.9581 C.3     1  UNL111     -0.0026
     13 C         124.2933  152.0251  146.0838 C.3     1  UNL111     -0.0206
     14 C         120.8478  152.3032  147.9297 C.3     1  UNL111      0.0903
     15 C         123.0449  153.5805  148.2651 C.3     1  UNL111     -0.0259
     16 C         121.7979  153.3498  146.1440 C.3     1  UNL111      0.0242
     17 C         123.7991  152.7528  144.7946 C.3     1  UNL111     -0.0213
     18 C         124.3250  154.0990  147.6105 C.3     1  UNL111     -0.0364
     19 C         122.5162  153.5172  144.9731 C.3     1  UNL111     -0.0424
     20 C         120.2387  150.9318  147.5012 C.3     1  UNL111      0.0605
     21 C         122.3777  150.3111  146.3179 C.2     1  UNL111     -0.0869
     22 C         120.5177  153.8348  146.3197 C.3     1  UNL111      0.1115
     23 C         121.0785  150.1000  146.5760 C.2     1  UNL111     -0.0672
     24 C         126.4077  153.4360  146.3977 C.3     1  UNL111     -0.0442
     25 C         121.9410  154.3164  143.9837 C.3     1  UNL111     -0.0564
     26 C         119.9346  154.6244  145.3496 C.3     1  UNL111      0.1200
     27 C         120.6710  154.8946  144.1878 C.3     1  UNL111     -0.0077
     28 C         117.6497  154.3271  145.6518 C.3     1  UNL111      0.1772
     29 C         116.8935  154.3332  146.8281 C.3     1  UNL111      0.2697
     30 C         117.3008  153.4467  144.6207 C.3     1  UNL111      0.0352
     31 C         115.8304  153.4415  147.0214 C.3     1  UNL111      0.1470
     32 C         116.2369  152.5540  144.7880 C.3     1  UNL111      0.0497
     33 C         115.5110  152.5496  145.9894 C.3     1  UNL111      0.2174
     34 H         118.5749  151.8915  147.2613 H       1  UNL111      0.2424
     35 H         125.4126  152.3707  147.7996 H       1  UNL111      0.1328
     36 H         123.5951  150.9975  147.8609 H       1  UNL111      0.0720
     37 H         124.9916  151.2276  145.8012 H       1  UNL111      0.0854
     38 H         120.8713  152.3300  149.0267 H       1  UNL111      0.1417
     39 H         123.3080  153.0594  149.1954 H       1  UNL111      0.0544
     40 H         122.4348  154.4434  148.5624 H       1  UNL111      0.0544
     41 H         123.6071  151.9832  144.0353 H       1  UNL111      0.0615
     42 H         124.5701  153.4122  144.3860 H       1  UNL111      0.0615
     43 H         124.1255  154.8277  146.8186 H       1  UNL111      0.0738
     44 H         124.9674  154.5734  148.3605 H       1  UNL111      0.0738
     45 H         120.0657  150.3372  148.4063 H       1  UNL111      0.1221
     46 H         122.9001  149.6117  145.6669 H       1  UNL111      0.0812
     47 H         120.5753  149.2493  146.1166 H       1  UNL111      0.0909
     48 H         126.1904  154.1874  145.6359 H       1  UNL111      0.0667
     49 H         126.9235  152.5727  145.9703 H       1  UNL111      0.0667
     50 H         127.0117  153.8703  147.1992 H       1  UNL111      0.0667
     51 H         122.4528  154.4912  143.0388 H       1  UNL111      0.0940
     52 H         120.2387  155.5269  143.4140 H       1  UNL111      0.1150
     53 H         117.8561  153.4448  143.6847 H       1  UNL111      0.1245
     54 H         115.2709  153.4464  147.9560 H       1  UNL111      0.1788
     55 H         115.9916  151.8669  143.9786 H       1  UNL111      0.1356
@<TRIPOS>UNITY_ATOM_ATTR
4 1
charge -1
6 1
charge -1
8 1
charge 1
9 1
charge 1
10 1
charge 1
@<TRIPOS>BOND
     1     1    14    1
     2     1    22    1
     3     2    20    1
     4     3    26    1
     5     3    28    1
     6     4     9    1
     7     5     9    2
     8     6    10    1
     9     7    10    2
    10     8    13    1
    11     8    18    1
    12     8    24    1
    13     9    29    1
    14    10    33    1
    15    11    12    1
    16    11    14    1
    17    11    15    1
    18    11    16    1
    19    12    13    1
    20    12    21    1
    21    13    17    1
    22    14    20    1
    23    15    18    1
    24    16    19   ar
    25    16    22   ar
    26    17    19    1
    27    19    25   ar
    28    20    23    1
    29    21    23    2
    30    22    26   ar
    31    25    27   ar
    32    26    27   ar
    33    28    29   ar
    34    28    30   ar
    35    29    31   ar
    36    30    32   ar
    37    31    33   ar
    38    32    33   ar
    39     2    34    1
    40     8    35    1
    41    12    36    1
    42    13    37    1
    43    14    38    1
    44    15    39    1
    45    15    40    1
    46    17    41    1
    47    17    42    1
    48    18    43    1
    49    18    44    1
    50    20    45    1
    51    21    46    1
    52    23    47    1
    53    24    48    1
    54    24    49    1
    55    24    50    1
    56    25    51    1
    57    27    52    1
    58    30    53    1
    59    31    54    1
    60    32    55    1
@<TRIPOS>MOLECULE
9868916
 60 65 0 0 0
SMALL
GASTEIGER

@<TRIPOS>ATOM
      1 O         120.4374  151.9153  145.5405 O.2     1  UNL111     -0.5434
      2 O         118.7043  152.6442  147.5108 O.3     1  UNL111     -0.3935
      3 O         121.2133  149.1511  145.9359 O.2     1  UNL111     -0.5485
      4 O         117.0153  153.8717  146.4655 O.3     1  UNL111     -0.3865
      5 O         117.0890  150.3138  147.3431 O.3     1  UNL111     -0.4257
      6 O         114.3095  150.7740  146.7890 O.3     1  UNL111     -0.4316
      7 O         113.9025  152.7914  144.7741 O.3     1  UNL111     -0.4315
      8 O         116.3897  156.0807  144.6043 O.co2   1  UNL111     -0.5546
      9 O         114.5911  155.8205  145.9973 O.co2   1  UNL111     -0.5546
     10 N         124.3008  155.4255  145.5416 N.4     1  UNL111      0.4275
     11 C         121.8929  153.8375  145.8589 C.3     1  UNL111      0.0537
     12 C         122.3013  154.8674  146.9257 C.3     1  UNL111     -0.0025
     13 C         120.4204  153.3587  145.8440 C.3     1  UNL111      0.0935
     14 C         123.8596  154.9103  146.9320 C.3     1  UNL111     -0.0206
     15 C         122.3627  154.2885  144.4619 C.3     1  UNL111     -0.0258
     16 C         122.5334  152.5315  146.2040 C.3     1  UNL111      0.0233
     17 C         124.5259  153.5460  147.2963 C.3     1  UNL111     -0.0213
     18 C         123.8628  154.5514  144.3890 C.3     1  UNL111     -0.0364
     19 C         119.6334  153.6717  147.1515 C.3     1  UNL111      0.0768
     20 C         123.7665  152.3431  146.8065 C.3     1  UNL111     -0.0425
     21 C         121.6928  154.5562  148.2707 C.2     1  UNL111     -0.0864
     22 C         121.6680  151.4930  145.9549 C.3     1  UNL111      0.1050
     23 C         120.4883  153.9699  148.3595 C.2     1  UNL111     -0.0634
     24 C         125.7606  155.7770  145.4561 C.3     1  UNL111     -0.0442
     25 C         124.1659  151.0250  147.0492 C.3     1  UNL111     -0.0573
     26 C         122.0500  150.1926  146.1828 C.3     1  UNL111      0.0917
     27 C         123.3146  149.9512  146.7166 C.3     1  UNL111     -0.0140
     28 C         117.5908  152.5950  146.6021 C.3     1  UNL111      0.1188
     29 C         116.5449  151.6378  147.1777 C.3     1  UNL111      0.0885
     30 C         115.3561  151.5843  146.2213 C.3     1  UNL111      0.0765
     31 C         114.8144  152.9836  145.8682 C.3     1  UNL111      0.0783
     32 C         115.9623  153.9171  145.4725 C.3     1  UNL111      0.1059
     33 C         115.5809  155.4144  145.3276 C.2     1  UNL111      0.0691
     34 H         120.3661  149.5382  145.6406 H       1  UNL111      0.3393
     35 H         117.9121  150.4509  147.8532 H       1  UNL111      0.2441
     36 H         114.7624  149.9689  147.1076 H       1  UNL111      0.2418
     37 H         113.1628  152.2825  145.1556 H       1  UNL111      0.2419
     38 H         123.8085  156.3218  145.4136 H       1  UNL111      0.1328
     39 H         121.9300  155.8623  146.6407 H       1  UNL111      0.0720
     40 H         119.8737  153.8247  145.0136 H       1  UNL111      0.1422
     41 H         124.2059  155.6775  147.6358 H       1  UNL111      0.0854
     42 H         121.8279  155.2077  144.1882 H       1  UNL111      0.0544
     43 H         122.1045  153.5445  143.6968 H       1  UNL111      0.0544
     44 H         124.5538  153.4795  148.3922 H       1  UNL111      0.0615
     45 H         125.5623  153.4947  146.9515 H       1  UNL111      0.0615
     46 H         124.4539  153.6306  144.4186 H       1  UNL111      0.0738
     47 H         124.1090  155.0874  143.4657 H       1  UNL111      0.0738
     48 H         119.0958  154.6172  146.9961 H       1  UNL111      0.1271
     49 H         122.2090  154.8424  149.1840 H       1  UNL111      0.0812
     50 H         120.0350  153.7943  149.3330 H       1  UNL111      0.0915
     51 H         126.3530  154.8596  145.4451 H       1  UNL111      0.0667
     52 H         126.0140  156.4019  146.3160 H       1  UNL111      0.0667
     53 H         125.9149  156.3386  144.5308 H       1  UNL111      0.0667
     54 H         125.1157  150.8090  147.5340 H       1  UNL111      0.0939
     55 H         123.6210  148.9282  146.9222 H       1  UNL111      0.1139
     56 H         117.9493  152.2238  145.6349 H       1  UNL111      0.1708
     57 H         116.2160  151.9661  148.1711 H       1  UNL111      0.1333
     58 H         115.6488  151.0628  145.3001 H       1  UNL111      0.1245
     59 H         114.2445  153.3823  146.7160 H       1  UNL111      0.1247
     60 H         116.3772  153.6034  144.5045 H       1  UNL111      0.1358
@<TRIPOS>UNITY_ATOM_ATTR
8 1
charge -1
10 1
charge 1
@<TRIPOS>BOND
     1     1    13    1
     2     1    22    1
     3     2    19    1
     4     2    28    1
     5     3    26    1
     6     4    28    1
     7     4    32    1
     8     5    29    1
     9     6    30    1
    10     7    31    1
    11     8    33   ar
    12     9    33   ar
    13    10    14    1
    14    10    18    1
    15    10    24    1
    16    11    12    1
    17    11    13    1
    18    11    15    1
    19    11    16    1
    20    12    14    1
    21    12    21    1
    22    13    19    1
    23    14    17    1
    24    15    18    1
    25    16    20   ar
    26    16    22   ar
    27    17    20    1
    28    19    23    1
    29    20    25   ar
    30    21    23    2
    31    22    26   ar
    32    25    27   ar
    33    26    27   ar
    34    28    29    1
    35    29    30    1
    36    30    31    1
    37    31    32    1
    38    32    33    1
    39     3    34    1
    40     5    35    1
    41     6    36    1
    42     7    37    1
    43    10    38    1
    44    12    39    1
    45    13    40    1
    46    14    41    1
    47    15    42    1
    48    15    43    1
    49    17    44    1
    50    17    45    1
    51    18    46    1
    52    18    47    1
    53    19    48    1
    54    21    49    1
    55    23    50    1
    56    24    51    1
    57    24    52    1
    58    24    53    1
    59    25    54    1
    60    27    55    1
    61    28    56    1
    62    29    57    1
    63    30    58    1
    64    31    59    1
    65    32    60    1
@<TRIPOS>MOLECULE
3303
 47 51 0 0 0
SMALL
GASTEIGER

@<TRIPOS>ATOM
      1 O         121.0684  154.2514  147.5996 O.3     1  UNL111     -0.5437
      2 O         119.6246  157.1311  146.6552 O.3     1  UNL111     -0.4348
      3 O         123.4265  152.8785  146.8382 O.3     1  UNL111     -0.5661
      4 N         116.6429  151.6577  147.0889 N.4     1  UNL111      0.4275
      5 C         118.8151  153.5874  147.0978 C.3     1  UNL111      0.0532
      6 C         117.5914  153.7799  146.1949 C.3     1  UNL111     -0.0026
      7 C         117.1138  152.3533  145.7862 C.3     1  UNL111     -0.0206
      8 C         119.7243  154.8042  147.3485 C.3     1  UNL111      0.0902
      9 C         118.3743  152.8953  148.4071 C.3     1  UNL111     -0.0259
     10 C         119.8354  152.7322  146.4280 C.ar    1  UNL111      0.0235
     11 C         118.1907  151.5212  145.0190 C.3     1  UNL111     -0.0213
     12 C         117.7021  151.5443  148.1644 C.3     1  UNL111     -0.0364
     13 C         119.5941  151.7234  145.5185 C.ar    1  UNL111     -0.0425
     14 C         119.8231  155.8064  146.1621 C.3     1  UNL111      0.0605
     15 C         117.8333  154.7167  145.0470 C.2     1  UNL111     -0.0869
     16 C         121.1050  153.1196  146.8128 C.ar    1  UNL111      0.1063
     17 C         118.8206  155.6240  145.0589 C.2     1  UNL111     -0.0672
     18 C         120.7074  151.0287  145.0486 C.ar    1  UNL111     -0.0570
     19 C         115.9384  150.3464  146.8601 C.3     1  UNL111     -0.0442
     20 C         122.2235  152.4351  146.3803 C.ar    1  UNL111      0.0937
     21 C         122.0084  151.3700  145.4923 C.ar    1  UNL111     -0.0127
     22 C         124.5870  152.1483  146.4452 C.3     1  UNL111      0.0338
     23 C         125.7895  152.7795  147.1233 C.3     1  UNL111     -0.0340
     24 H         120.4516  157.3918  147.1005 H       1  UNL111      0.2424
     25 H         115.9150  152.2736  147.4780 H       1  UNL111      0.1328
     26 H         116.7866  154.2525  146.7776 H       1  UNL111      0.0720
     27 H         116.2101  152.4262  145.1684 H       1  UNL111      0.0854
     28 H         119.4255  155.3328  148.2623 H       1  UNL111      0.1417
     29 H         117.6742  153.5530  148.9393 H       1  UNL111      0.0544
     30 H         119.2224  152.7424  149.0871 H       1  UNL111      0.0544
     31 H         118.1750  151.8489  143.9711 H       1  UNL111      0.0615
     32 H         117.9467  150.4551  145.0195 H       1  UNL111      0.0615
     33 H         118.4135  150.7713  147.8569 H       1  UNL111      0.0738
     34 H         117.1983  151.2041  149.0760 H       1  UNL111      0.0738
     35 H         120.8238  155.7791  145.7137 H       1  UNL111      0.1221
     36 H         117.1410  154.7132  144.2066 H       1  UNL111      0.0812
     37 H         118.9197  156.3110  144.2191 H       1  UNL111      0.0909
     38 H         120.5968  150.2295  144.3173 H       1  UNL111      0.0939
     39 H         116.6724  149.5875  146.5812 H       1  UNL111      0.0667
     40 H         115.1952  150.4903  146.0721 H       1  UNL111      0.0667
     41 H         115.4412  150.0694  147.7937 H       1  UNL111      0.0667
     42 H         122.8413  150.7980  145.0912 H       1  UNL111      0.1142
     43 H         124.7176  152.2018  145.3583 H       1  UNL111      0.1121
     44 H         124.5055  151.1024  146.7632 H       1  UNL111      0.1121
     45 H         125.8875  153.8311  146.8340 H       1  UNL111      0.0424
     46 H         126.7094  152.2522  146.8557 H       1  UNL111      0.0424
     47 H         125.6733  152.7579  148.2120 H       1  UNL111      0.0424
@<TRIPOS>UNITY_ATOM_ATTR
4 1
charge 1
@<TRIPOS>BOND
     1     1     8    1
     2     1    16    1
     3     2    14    1
     4     3    20    1
     5     3    22    1
     6     4     7    1
     7     4    12    1
     8     4    19    1
     9     5     6    1
    10     5     8    1
    11     5     9    1
    12     5    10    1
    13     6     7    1
    14     6    15    1
    15     7    11    1
    16     8    14    1
    17     9    12    1
    18    10    13   ar
    19    10    16   ar
    20    11    13    1
    21    13    18   ar
    22    14    17    1
    23    15    17    2
    24    16    20   ar
    25    18    21   ar
    26    20    21   ar
    27    22    23    1
    28     2    24    1
    29     4    25    1
    30     6    26    1
    31     7    27    1
    32     8    28    1
    33     9    29    1
    34     9    30    1
    35    11    31    1
    36    11    32    1
    37    12    33    1
    38    12    34    1
    39    14    35    1
    40    15    36    1
    41    17    37    1
    42    18    38    1
    43    19    39    1
    44    19    40    1
    45    19    41    1
    46    21    42    1
    47    22    43    1
    48    22    44    1
    49    23    45    1
    50    23    46    1
    51    23    47    1
@<TRIPOS>MOLECULE
5462328
 51 55 0 0 0
SMALL
GASTEIGER

@<TRIPOS>ATOM
      1 O         118.8673  153.0749  147.5877 O.2     1  UNL111     -0.5385
      2 O         117.6816  151.1653  146.1007 O.3     1  UNL111     -0.5034
      3 O         117.6439  155.6521  146.8892 O.3     1  UNL111     -0.4570
      4 O         117.2131  150.3283  148.1811 O.2     1  UNL111     -0.3412
      5 O         116.6719  154.2563  145.2809 O.2     1  UNL111     -0.3381
      6 N         123.9975  152.7146  146.7612 N.4     1  UNL111      0.4275
      7 C         121.1169  152.3951  146.9897 C.3     1  UNL111      0.0569
      8 C         121.9184  151.6053  145.9442 C.3     1  UNL111     -0.0012
      9 C         123.1096  152.5155  145.5091 C.3     1  UNL111     -0.0204
     10 C         119.7045  151.8844  147.3671 C.3     1  UNL111      0.1047
     11 C         121.9864  152.6561  148.2381 C.3     1  UNL111     -0.0252
     12 C         120.7058  153.7014  146.3927 C.3     1  UNL111      0.0253
     13 C         122.6704  153.8712  144.8736 C.3     1  UNL111     -0.0213
     14 C         123.2939  153.3784  147.9231 C.3     1  UNL111     -0.0363
     15 C         121.4215  154.4548  145.4757 C.3     1  UNL111     -0.0422
     16 C         119.0685  150.8955  146.3389 C.3     1  UNL111      0.1110
     17 C         121.0531  151.1291  144.8078 C.2     1  UNL111     -0.0823
     18 C         119.4429  154.0470  146.8177 C.3     1  UNL111      0.1148
     19 C         119.7579  150.8327  144.9965 C.2     1  UNL111     -0.0495
     20 C         125.3268  153.3619  146.4697 C.3     1  UNL111     -0.0442
     21 C         120.8656  155.6725  145.0720 C.3     1  UNL111     -0.0561
     22 C         118.8854  155.2429  146.4220 C.3     1  UNL111      0.1319
     23 C         119.6114  156.0800  145.5680 C.3     1  UNL111     -0.0054
     24 C         116.8524  150.8312  147.1251 C.2     1  UNL111      0.2147
     25 C         115.4380  151.1971  146.7979 C.3     1  UNL111      0.0550
     26 C         116.5934  155.0275  146.2283 C.2     1  UNL111      0.2266
     27 C         115.3024  155.4698  146.8507 C.3     1  UNL111      0.0573
     28 H         124.2421  151.7670  147.0811 H       1  UNL111      0.1328
     29 H         122.3331  150.6982  146.4076 H       1  UNL111      0.0721
     30 H         123.7476  151.9755  144.7984 H       1  UNL111      0.0854
     31 H         119.7408  151.3666  148.3345 H       1  UNL111      0.1477
     32 H         122.2189  151.6936  148.7133 H       1  UNL111      0.0545
     33 H         121.4395  153.2425  148.9879 H       1  UNL111      0.0545
     34 H         122.4534  153.6811  143.8140 H       1  UNL111      0.0615
     35 H         123.4756  154.6107  144.9021 H       1  UNL111      0.0615
     36 H         123.1418  154.4323  147.6703 H       1  UNL111      0.0738
     37 H         123.9712  153.3251  148.7826 H       1  UNL111      0.0738
     38 H         119.1635  149.8748  146.7380 H       1  UNL111      0.1530
     39 H         121.4864  150.9886  143.8192 H       1  UNL111      0.0821
     40 H         119.1639  150.4633  144.1615 H       1  UNL111      0.0975
     41 H         125.1736  154.4227  146.2612 H       1  UNL111      0.0667
     42 H         125.7769  152.8492  145.6162 H       1  UNL111      0.0667
     43 H         125.9579  153.2356  147.3537 H       1  UNL111      0.0667
     44 H         121.3756  156.3065  144.3488 H       1  UNL111      0.0940
     45 H         119.1850  157.0279  145.2478 H       1  UNL111      0.1154
     46 H         115.2767  152.2579  146.9989 H       1  UNL111      0.0793
     47 H         114.7598  150.6007  147.4144 H       1  UNL111      0.0793
     48 H         115.2221  150.9719  145.7498 H       1  UNL111      0.0793
     49 H         115.2929  155.2058  147.9112 H       1  UNL111      0.0797
     50 H         114.4700  154.9579  146.3594 H       1  UNL111      0.0797
     51 H         115.1777  156.5475  146.7197 H       1  UNL111      0.0797
@<TRIPOS>UNITY_ATOM_ATTR
6 1
charge 1
@<TRIPOS>BOND
     1     1    10    1
     2     1    18    1
     3     2    16    1
     4     2    24    1
     5     3    22    1
     6     3    26    1
     7     4    24    2
     8     5    26    2
     9     6     9    1
    10     6    14    1
    11     6    20    1
    12     7     8    1
    13     7    10    1
    14     7    11    1
    15     7    12    1
    16     8     9    1
    17     8    17    1
    18     9    13    1
    19    10    16    1
    20    11    14    1
    21    12    15   ar
    22    12    18   ar
    23    13    15    1
    24    15    21   ar
    25    16    19    1
    26    17    19    2
    27    18    22   ar
    28    21    23   ar
    29    22    23   ar
    30    24    25    1
    31    26    27    1
    32     6    28    1
    33     8    29    1
    34     9    30    1
    35    10    31    1
    36    11    32    1
    37    11    33    1
    38    13    34    1
    39    13    35    1
    40    14    36    1
    41    14    37    1
    42    16    38    1
    43    17    39    1
    44    19    40    1
    45    20    41    1
    46    20    42    1
    47    20    43    1
    48    21    44    1
    49    23    45    1
    50    25    46    1
    51    25    47    1
    52    25    48    1
    53    27    49    1
    54    27    50    1
    55    27    51    1
@<TRIPOS>MOLECULE
521115
 42 46 0 0 0
SMALL
GASTEIGER

@<TRIPOS>ATOM
      1 O         121.4450  154.8986  145.8723 O.3     1  UNL111     -0.5552
      2 O         124.1060  153.5554  145.8899 O.3     1  UNL111     -0.5485
      3 N         117.3825  151.7769  145.8354 N.4     1  UNL111      0.4269
      4 C         119.4322  153.7334  146.3122 C.3     1  UNL111      0.0400
      5 C         118.3724  153.4997  147.3629 C.3     1  UNL111     -0.0208
      6 C         117.9800  152.0048  147.2328 C.3     1  UNL111     -0.0259
      7 C         120.1737  155.0392  146.5638 C.3     1  UNL111      0.0590
      8 C         118.9099  153.4961  144.8718 C.3     1  UNL111     -0.0287
      9 C         120.5977  152.8672  146.5236 C.ar    1  UNL111      0.0197
     10 C         117.3154  154.6115  147.1938 C.3     1  UNL111     -0.0473
     11 C         119.2306  156.1888  146.2499 C.3     1  UNL111     -0.0212
     12 C         119.2272  151.0557  147.5106 C.3     1  UNL111     -0.0226
     13 C         118.3215  152.0988  144.6940 C.3     1  UNL111     -0.0370
     14 C         117.9546  156.0355  147.1292 C.3     1  UNL111     -0.0490
     15 C         120.5575  151.5806  147.0141 C.ar    1  UNL111     -0.0432
     16 C         121.7393  153.5729  146.1788 C.ar    1  UNL111      0.1023
     17 C         116.7469  150.4206  145.6626 C.3     1  UNL111     -0.0445
     18 C         121.7884  150.9342  147.0837 C.ar    1  UNL111     -0.0573
     19 C         122.9481  152.9347  146.2258 C.ar    1  UNL111      0.0914
     20 C         122.9733  151.6046  146.6716 C.ar    1  UNL111     -0.0140
     21 H         123.8805  154.4738  145.6497 H       1  UNL111      0.3393
     22 H         116.5947  152.4318  145.7513 H       1  UNL111      0.1324
     23 H         118.7948  153.6248  148.3720 H       1  UNL111      0.0615
     24 H         117.1759  151.7652  147.9383 H       1  UNL111      0.0834
     25 H         120.4389  155.1554  147.6308 H       1  UNL111      0.1262
     26 H         119.7039  153.6359  144.1265 H       1  UNL111      0.0539
     27 H         118.1360  154.2262  144.6110 H       1  UNL111      0.0539
     28 H         116.6082  154.5732  148.0309 H       1  UNL111      0.0376
     29 H         116.7172  154.4646  146.2892 H       1  UNL111      0.0376
     30 H         118.9722  156.2179  145.1863 H       1  UNL111      0.0510
     31 H         119.7196  157.1467  146.4609 H       1  UNL111      0.0510
     32 H         119.0567  150.0512  147.1135 H       1  UNL111      0.0613
     33 H         119.3161  150.9602  148.6008 H       1  UNL111      0.0613
     34 H         117.7356  152.0480  143.7696 H       1  UNL111      0.0738
     35 H         119.0901  151.3204  144.6569 H       1  UNL111      0.0738
     36 H         118.2224  156.3213  148.1552 H       1  UNL111      0.0354
     37 H         117.1981  156.7558  146.7972 H       1  UNL111      0.0354
     38 H         117.5284  149.6607  145.5997 H       1  UNL111      0.0667
     39 H         116.1629  150.4434  144.7384 H       1  UNL111      0.0667
     40 H         116.0860  150.2421  146.5143 H       1  UNL111      0.0667
     41 H         121.8686  149.9195  147.4690 H       1  UNL111      0.0939
     42 H         123.9297  151.0871  146.7336 H       1  UNL111      0.1139
@<TRIPOS>UNITY_ATOM_ATTR
3 1
charge 1
@<TRIPOS>BOND
     1     1     7    1
     2     1    16    1
     3     2    19    1
     4     3     6    1
     5     3    13    1
     6     3    17    1
     7     4     5    1
     8     4     7    1
     9     4     8    1
    10     4     9    1
    11     5     6    1
    12     5    10    1
    13     6    12    1
    14     7    11    1
    15     8    13    1
    16     9    15   ar
    17     9    16   ar
    18    10    14    1
    19    11    14    1
    20    12    15    1
    21    15    18   ar
    22    16    19   ar
    23    18    20   ar
    24    19    20   ar
    25     2    21    1
    26     3    22    1
    27     5    23    1
    28     6    24    1
    29     7    25    1
    30     8    26    1
    31     8    27    1
    32    10    28    1
    33    10    29    1
    34    11    30    1
    35    11    31    1
    36    12    32    1
    37    12    33    1
    38    13    34    1
    39    13    35    1
    40    14    36    1
    41    14    37    1
    42    17    38    1
    43    17    39    1
    44    17    40    1
    45    18    41    1
    46    20    42    1
@<TRIPOS>MOLECULE
5486939
 42 46 0 0 0
SMALL
GASTEIGER

@<TRIPOS>ATOM
      1 O         117.7308  152.5430  147.5670 O.3     1  UNL111     -0.5437
      2 O         121.6307  154.0911  143.9441 O.3     1  UNL111     -0.4361
      3 O         116.9369  150.7899  145.7609 O.3     1  UNL111     -0.4348
      4 O         116.2907  155.0237  147.0746 O.3     1  UNL111     -0.5485
      5 N         122.9463  152.8415  147.2271 N.4     1  UNL111      0.4305
      6 C         120.1043  152.2092  147.1300 C.3     1  UNL111      0.0564
      7 C         121.0781  151.6528  146.0818 C.3     1  UNL111      0.0051
      8 C         122.1870  152.7347  145.8779 C.3     1  UNL111      0.0061
      9 C         118.7386  151.4972  147.3045 C.3     1  UNL111      0.0906
     10 C         120.8327  152.3995  148.4795 C.3     1  UNL111     -0.0252
     11 C         119.5837  153.5252  146.6535 C.ar    1  UNL111      0.0333
     12 C         121.6353  154.1248  145.3716 C.3     1  UNL111      0.0456
     13 C         122.0806  153.2776  148.3842 C.3     1  UNL111     -0.0346
     14 C         120.2644  154.4657  145.8972 C.ar    1  UNL111     -0.0102
     15 C         118.3040  150.6067  146.1030 C.3     1  UNL111      0.0605
     16 C         120.3749  151.2180  144.8239 C.2     1  UNL111     -0.0853
     17 C         118.2600  153.6720  147.0010 C.ar    1  UNL111      0.1069
     18 C         119.1150  150.7572  144.8487 C.2     1  UNL111     -0.0670
     19 C         119.5897  155.6577  145.6057 C.ar    1  UNL111     -0.0473
     20 C         124.2210  153.6419  147.1335 C.3     1  UNL111     -0.0425
     21 C         117.5882  154.8384  146.7211 C.ar    1  UNL111      0.0921
     22 C         118.2601  155.8473  146.0331 C.ar    1  UNL111     -0.0122
     23 H         120.7536  154.3650  143.6144 H       1  UNL111      0.2437
     24 H         116.6568  151.6540  146.1133 H       1  UNL111      0.2424
     25 H         115.9983  154.2287  147.5572 H       1  UNL111      0.3393
     26 H         123.2660  151.8864  147.4415 H       1  UNL111      0.1354
     27 H         121.5593  150.7461  146.4775 H       1  UNL111      0.0740
     28 H         122.9297  152.3520  145.1657 H       1  UNL111      0.0988
     29 H         118.7485  150.8622  148.1998 H       1  UNL111      0.1417
     30 H         121.1260  151.4125  148.8618 H       1  UNL111      0.0544
     31 H         120.1626  152.8319  149.2340 H       1  UNL111      0.0544
     32 H         122.3208  154.9292  145.6517 H       1  UNL111      0.1226
     33 H         121.8362  154.3352  148.2439 H       1  UNL111      0.0741
     34 H         122.6835  153.1794  149.2936 H       1  UNL111      0.0741
     35 H         118.4069  149.5574  146.4068 H       1  UNL111      0.1221
     36 H         120.9122  151.2355  143.8762 H       1  UNL111      0.0814
     37 H         118.6504  150.4106  143.9261 H       1  UNL111      0.0909
     38 H         120.0701  156.4448  145.0255 H       1  UNL111      0.0962
     39 H         123.9759  154.7015  147.0391 H       1  UNL111      0.0670
     40 H         124.7863  153.2847  146.2693 H       1  UNL111      0.0670
     41 H         124.7906  153.4636  148.0497 H       1  UNL111      0.0670
     42 H         117.7382  156.7724  145.7951 H       1  UNL111      0.1142
@<TRIPOS>UNITY_ATOM_ATTR
5 1
charge 1
@<TRIPOS>BOND
     1     1     9    1
     2     1    17    1
     3     2    12    1
     4     3    15    1
     5     4    21    1
     6     5     8    1
     7     5    13    1
     8     5    20    1
     9     6     7    1
    10     6     9    1
    11     6    10    1
    12     6    11    1
    13     7     8    1
    14     7    16    1
    15     8    12    1
    16     9    15    1
    17    10    13    1
    18    11    14   ar
    19    11    17   ar
    20    12    14    1
    21    14    19   ar
    22    15    18    1
    23    16    18    2
    24    17    21   ar
    25    19    22   ar
    26    21    22   ar
    27     2    23    1
    28     3    24    1
    29     4    25    1
    30     5    26    1
    31     7    27    1
    32     8    28    1
    33     9    29    1
    34    10    30    1
    35    10    31    1
    36    12    32    1
    37    13    33    1
    38    13    34    1
    39    15    35    1
    40    16    36    1
    41    18    37    1
    42    19    38    1
    43    20    39    1
    44    20    40    1
    45    20    41    1
    46    22    42    1
@<TRIPOS>MOLECULE
13544016
 44 45 0 0 0
SMALL
GASTEIGER

@<TRIPOS>ATOM
      1 CL        124.8101  150.7478  146.4596 Cl      1  UNL111     -0.1190
      2 CL        126.0800  153.7369  146.6703 Cl      1  UNL111     -0.1199
      3 O         119.7662  152.0895  145.2631 O.2     1  UNL111     -0.3680
      4 N         117.4039  151.2862  146.1233 N.4     1  UNL111      0.4264
      5 N         119.2522  153.6332  146.8612 N.am    1  UNL111     -0.3169
      6 C         116.9160  152.5946  146.7617 C.3     1  UNL111     -0.0222
      7 C         117.8457  153.7991  146.3762 C.3     1  UNL111      0.0063
      8 C         115.4363  152.8331  146.4244 C.3     1  UNL111     -0.0495
      9 C         117.2414  155.1456  146.8285 C.3     1  UNL111     -0.0372
     10 C         114.9351  154.1714  146.9526 C.3     1  UNL111     -0.0554
     11 C         115.7858  155.3129  146.4116 C.3     1  UNL111     -0.0544
     12 C         116.9838  151.0211  144.7029 C.3     1  UNL111     -0.0447
     13 C         117.2169  150.0855  146.9965 C.3     1  UNL111     -0.0447
     14 C         119.6141  154.1403  148.1878 C.3     1  UNL111     -0.0066
     15 C         120.1616  152.9256  146.0755 C.2     1  UNL111      0.1839
     16 C         121.6192  153.1295  146.2483 C.3     1  UNL111      0.0518
     17 C         122.4565  152.0096  146.2745 C.3     1  UNL111     -0.0062
     18 C         122.1635  154.4166  146.3130 C.3     1  UNL111     -0.0388
     19 C         123.8387  152.1746  146.4090 C.3     1  UNL111      0.0578
     20 C         123.5452  154.5786  146.4452 C.3     1  UNL111     -0.0362
     21 C         124.3852  153.4605  146.4990 C.3     1  UNL111      0.0524
     22 H         118.4300  151.4064  146.0166 H       1  UNL111      0.1318
     23 H         117.0095  152.4484  147.8458 H       1  UNL111      0.0878
     24 H         117.9012  153.8284  145.2794 H       1  UNL111      0.0921
     25 H         114.8208  152.0264  146.8392 H       1  UNL111      0.0477
     26 H         115.2769  152.8319  145.3402 H       1  UNL111      0.0477
     27 H         117.8367  155.9706  146.4184 H       1  UNL111      0.0442
     28 H         117.2857  155.2420  147.9197 H       1  UNL111      0.0442
     29 H         114.9578  154.1720  148.0490 H       1  UNL111      0.0352
     30 H         113.8912  154.3166  146.6523 H       1  UNL111      0.0352
     31 H         115.7134  155.3505  145.3180 H       1  UNL111      0.0340
     32 H         115.4034  156.2670  146.7917 H       1  UNL111      0.0340
     33 H         115.9321  150.7238  144.6949 H       1  UNL111      0.0666
     34 H         117.6075  150.2107  144.3147 H       1  UNL111      0.0666
     35 H         117.1480  151.9260  144.1136 H       1  UNL111      0.0666
     36 H         116.1459  149.9154  147.1312 H       1  UNL111      0.0666
     37 H         117.7077  150.2789  147.9539 H       1  UNL111      0.0666
     38 H         117.6894  149.2286  146.5089 H       1  UNL111      0.0666
     39 H         118.8388  153.8509  148.9031 H       1  UNL111      0.0661
     40 H         119.6985  155.2293  148.1443 H       1  UNL111      0.0661
     41 H         120.5587  153.7172  148.5378 H       1  UNL111      0.0661
     42 H         122.0368  151.0100  146.1887 H       1  UNL111      0.1098
     43 H         121.5288  155.2973  146.2440 H       1  UNL111      0.0985
     44 H         123.9670  155.5812  146.4967 H       1  UNL111      0.1014
@<TRIPOS>UNITY_ATOM_ATTR
4 1
charge 1
@<TRIPOS>BOND
     1     1    19    1
     2     2    21    1
     3     3    15    2
     4     4     6    1
     5     4    12    1
     6     4    13    1
     7     5     7    1
     8     5    14    1
     9     5    15   am
    10     6     7    1
    11     6     8    1
    12     7     9    1
    13     8    10    1
    14     9    11    1
    15    10    11    1
    16    15    16    1
    17    16    17   ar
    18    16    18   ar
    19    17    19   ar
    20    18    20   ar
    21    19    21   ar
    22    20    21   ar
    23     4    22    1
    24     6    23    1
    25     7    24    1
    26     8    25    1
    27     8    26    1
    28     9    27    1
    29     9    28    1
    30    10    29    1
    31    10    30    1
    32    11    31    1
    33    11    32    1
    34    12    33    1
    35    12    34    1
    36    12    35    1
    37    13    36    1
    38    13    37    1
    39    13    38    1
    40    14    39    1
    41    14    40    1
    42    14    41    1
    43    17    42    1
    44    18    43    1
    45    20    44    1
@<TRIPOS>MOLECULE
5359460
 53 57 0 0 0
SMALL
GASTEIGER

@<TRIPOS>ATOM
      1 O         121.0168  152.8054  145.1189 O.2     1  UNL111     -0.5404
      2 O         120.2712  150.6603  146.6638 O.3     1  UNL111     -0.5107
      3 O         123.1793  153.7834  146.8756 O.3     1  UNL111     -0.4570
      4 O         120.7146  148.4497  146.2419 O.2     1  UNL111     -0.3416
      5 O         122.8771  155.6156  145.4486 O.2     1  UNL111     -0.3381
      6 N         116.4518  155.0105  146.0509 N.4     1  UNL111      0.4269
      7 C         118.6765  153.2311  145.4955 C.3     1  UNL111      0.0510
      8 C         117.3249  152.6974  145.9692 C.3     1  UNL111     -0.0167
      9 C         119.6813  152.2463  144.8645 C.3     1  UNL111      0.0984
     10 C         116.7237  153.7620  146.9252 C.3     1  UNL111     -0.0254
     11 C         118.4326  154.4780  144.6122 C.3     1  UNL111     -0.0266
     12 C         119.5268  153.6379  146.6432 C.3     1  UNL111      0.0236
     13 C         117.4039  151.2874  146.5590 C.3     1  UNL111     -0.0362
     14 C         119.5957  150.7827  145.3911 C.3     1  UNL111      0.0934
     15 C         117.6196  154.0879  148.1647 C.3     1  UNL111     -0.0225
     16 C         118.1379  150.3500  145.5902 C.3     1  UNL111     -0.0090
     17 C         117.6699  155.5794  145.3491 C.3     1  UNL111     -0.0368
     18 C         119.0940  154.1126  147.8672 C.3     1  UNL111     -0.0427
     19 C         120.8573  153.4664  146.3169 C.3     1  UNL111      0.1142
     20 C         115.6671  156.0883  146.7534 C.3     1  UNL111     -0.0445
     21 C         120.0804  154.4976  148.7783 C.3     1  UNL111     -0.0561
     22 C         121.8328  153.8990  147.1841 C.3     1  UNL111      0.1318
     23 C         121.4468  154.4071  148.4308 C.3     1  UNL111     -0.0054
     24 C         120.8217  149.4466  146.9398 C.2     1  UNL111      0.2130
     25 C         121.5552  149.5018  148.2441 C.3     1  UNL111      0.0547
     26 C         123.5633  154.7130  145.9145 C.2     1  UNL111      0.2266
     27 C         124.9981  154.4692  145.5519 C.3     1  UNL111      0.0573
     28 H         115.8250  154.6890  145.3007 H       1  UNL111      0.1324
     29 H         116.6637  152.6079  145.0937 H       1  UNL111      0.0621
     30 H         119.5316  152.2214  143.7774 H       1  UNL111      0.1454
     31 H         115.7337  153.4381  147.2681 H       1  UNL111      0.0835
     32 H         117.8615  154.1794  143.7229 H       1  UNL111      0.0542
     33 H         119.3743  154.9002  144.2380 H       1  UNL111      0.0542
     34 H         116.3887  150.9083  146.7274 H       1  UNL111      0.0404
     35 H         117.9010  151.2855  147.5351 H       1  UNL111      0.0404
     36 H         120.0950  150.1401  144.6552 H       1  UNL111      0.1421
     37 H         117.4562  153.2972  148.9084 H       1  UNL111      0.0613
     38 H         117.3206  155.0287  148.6355 H       1  UNL111      0.0613
     39 H         117.6197  150.3298  144.6241 H       1  UNL111      0.0540
     40 H         118.0997  149.3350  146.0019 H       1  UNL111      0.0540
     41 H         118.2845  156.0876  146.0986 H       1  UNL111      0.0738
     42 H         117.3075  156.3288  144.6368 H       1  UNL111      0.0738
     43 H         116.3143  156.5934  147.4734 H       1  UNL111      0.0667
     44 H         114.8109  155.6214  147.2463 H       1  UNL111      0.0667
     45 H         115.3192  156.7939  145.9940 H       1  UNL111      0.0667
     46 H         119.8131  154.8641  149.7679 H       1  UNL111      0.0940
     47 H         122.2059  154.7197  149.1445 H       1  UNL111      0.1154
     48 H         122.3074  150.2944  148.2136 H       1  UNL111      0.0793
     49 H         122.0651  148.5492  148.4138 H       1  UNL111      0.0793
     50 H         120.8477  149.6746  149.0587 H       1  UNL111      0.0793
     51 H         125.1275  153.4350  145.2227 H       1  UNL111      0.0797
     52 H         125.6381  154.6832  146.4112 H       1  UNL111      0.0797
     53 H         125.2798  155.1297  144.7268 H       1  UNL111      0.0797
@<TRIPOS>UNITY_ATOM_ATTR
6 1
charge 1
@<TRIPOS>BOND
     1     1     9    1
     2     1    19    1
     3     2    14    1
     4     2    24    1
     5     3    22    1
     6     3    26    1
     7     4    24    2
     8     5    26    2
     9     6    10    1
    10     6    17    1
    11     6    20    1
    12     7     8    1
    13     7     9    1
    14     7    11    1
    15     7    12    1
    16     8    10    1
    17     8    13    1
    18     9    14    1
    19    10    15    1
    20    11    17    1
    21    12    18   ar
    22    12    19   ar
    23    13    16    1
    24    14    16    1
    25    15    18    1
    26    18    21   ar
    27    19    22   ar
    28    21    23   ar
    29    22    23   ar
    30    24    25    1
    31    26    27    1
    32     6    28    1
    33     8    29    1
    34     9    30    1
    35    10    31    1
    36    11    32    1
    37    11    33    1
    38    13    34    1
    39    13    35    1
    40    14    36    1
    41    15    37    1
    42    15    38    1
    43    16    39    1
    44    16    40    1
    45    17    41    1
    46    17    42    1
    47    20    43    1
    48    20    44    1
    49    20    45    1
    50    21    46    1
    51    23    47    1
    52    25    48    1
    53    25    49    1
    54    25    50    1
    55    27    51    1
    56    27    52    1
    57    27    53    1
@<TRIPOS>MOLECULE
3592
 51 55 0 0 0
SMALL
GASTEIGER

@<TRIPOS>ATOM
      1 O         118.7662  153.9830  145.2414 O.2     1  UNL111     -0.5385
      2 O         120.8388  156.4042  146.6493 O.3     1  UNL111     -0.5034
      3 O         116.0202  153.0227  145.6755 O.3     1  UNL111     -0.4570
      4 O         122.7551  155.4086  145.8621 O.2     1  UNL111     -0.3412
      5 O         116.4206  154.5612  147.3951 O.2     1  UNL111     -0.3381
      6 N         122.5661  150.5101  145.9469 N.4     1  UNL111      0.4275
      7 C         120.7738  152.7972  145.8903 C.3     1  UNL111      0.0569
      8 C         121.8178  152.6325  147.0069 C.3     1  UNL111     -0.0012
      9 C         121.9770  151.1019  147.2500 C.3     1  UNL111     -0.0204
     10 C         120.1671  154.2015  145.6590 C.3     1  UNL111      0.1047
     11 C         121.3090  152.1801  144.5804 C.3     1  UNL111     -0.0252
     12 C         119.5165  152.0973  146.2853 C.3     1  UNL111      0.0253
     13 C         120.6597  150.3880  147.6862 C.3     1  UNL111     -0.0213
     14 C         121.7014  150.7118  144.7244 C.3     1  UNL111     -0.0363
     15 C         119.4151  150.9507  147.0553 C.3     1  UNL111     -0.0422
     16 C         120.1868  155.1343  146.9102 C.3     1  UNL111      0.1110
     17 C         121.4946  153.4318  148.2407 C.2     1  UNL111     -0.0823
     18 C         118.4187  152.8052  145.8487 C.3     1  UNL111      0.1148
     19 C         120.7686  154.5582  148.1798 C.2     1  UNL111     -0.0495
     20 C         123.0338  149.0861  146.0782 C.3     1  UNL111     -0.0442
     21 C         118.1306  150.4540  147.2974 C.3     1  UNL111     -0.0561
     22 C         117.1489  152.3366  146.1031 C.3     1  UNL111      0.1319
     23 C         116.9992  151.1338  146.8016 C.3     1  UNL111     -0.0054
     24 C         122.1091  156.4041  146.1649 C.2     1  UNL111      0.2147
     25 C         122.6147  157.8094  146.0483 C.3     1  UNL111      0.0550
     26 C         115.7910  154.1778  146.4168 C.2     1  UNL111      0.2266
     27 C         114.6051  154.8933  145.8414 C.3     1  UNL111      0.0573
     28 H         123.4267  151.0489  145.7707 H       1  UNL111      0.1328
     29 H         122.7899  153.0098  146.6605 H       1  UNL111      0.0721
     30 H         122.7490  150.9248  148.0093 H       1  UNL111      0.0854
     31 H         120.6366  154.6967  144.8021 H       1  UNL111      0.1477
     32 H         122.1879  152.7519  144.2537 H       1  UNL111      0.0545
     33 H         120.5729  152.2638  143.7703 H       1  UNL111      0.0545
     34 H         120.5564  150.5270  148.7706 H       1  UNL111      0.0615
     35 H         120.7086  149.3098  147.5094 H       1  UNL111      0.0615
     36 H         120.8325  150.0519  144.8123 H       1  UNL111      0.0738
     37 H         122.2897  150.3918  143.8573 H       1  UNL111      0.0738
     38 H         119.1502  155.4076  147.1428 H       1  UNL111      0.1530
     39 H         121.9112  153.1270  149.1989 H       1  UNL111      0.0821
     40 H         120.5835  155.1284  149.0888 H       1  UNL111      0.0975
     41 H         122.1662  148.4252  146.1303 H       1  UNL111      0.0667
     42 H         123.6472  149.0088  146.9792 H       1  UNL111      0.0667
     43 H         123.6378  148.8521  145.1972 H       1  UNL111      0.0667
     44 H         117.9833  149.5604  147.9015 H       1  UNL111      0.0940
     45 H         116.0036  150.7481  147.0087 H       1  UNL111      0.1154
     46 H         121.9331  158.4002  145.4311 H       1  UNL111      0.0793
     47 H         123.5965  157.8019  145.5663 H       1  UNL111      0.0793
     48 H         122.7134  158.2499  147.0434 H       1  UNL111      0.0793
     49 H         114.7933  155.1395  144.7933 H       1  UNL111      0.0797
     50 H         114.4424  155.8245  146.3916 H       1  UNL111      0.0797
     51 H         113.7135  154.2687  145.9371 H       1  UNL111      0.0797
@<TRIPOS>UNITY_ATOM_ATTR
6 1
charge 1
@<TRIPOS>BOND
     1     1    10    1
     2     1    18    1
     3     2    16    1
     4     2    24    1
     5     3    22    1
     6     3    26    1
     7     4    24    2
     8     5    26    2
     9     6     9    1
    10     6    14    1
    11     6    20    1
    12     7     8    1
    13     7    10    1
    14     7    11    1
    15     7    12    1
    16     8     9    1
    17     8    17    1
    18     9    13    1
    19    10    16    1
    20    11    14    1
    21    12    15   ar
    22    12    18   ar
    23    13    15    1
    24    15    21   ar
    25    16    19    1
    26    17    19    2
    27    18    22   ar
    28    21    23   ar
    29    22    23   ar
    30    24    25    1
    31    26    27    1
    32     6    28    1
    33     8    29    1
    34     9    30    1
    35    10    31    1
    36    11    32    1
    37    11    33    1
    38    13    34    1
    39    13    35    1
    40    14    36    1
    41    14    37    1
    42    16    38    1
    43    17    39    1
    44    19    40    1
    45    20    41    1
    46    20    42    1
    47    20    43    1
    48    21    44    1
    49    23    45    1
    50    25    46    1
    51    25    47    1
    52    25    48    1
    53    27    49    1
    54    27    50    1
    55    27    51    1
@<TRIPOS>MOLECULE
235511
 22 22 0 0 0
SMALL
GASTEIGER

@<TRIPOS>ATOM
      1 S         121.6885  152.3276  146.2661 S.O2    1  UNL1111    -0.0105
      2 O         121.6402  150.9059  146.0082 O.2     1  UNL1111    -0.2434
      3 O         122.5102  153.2139  145.4764 O.2     1  UNL1111    -0.2434
      4 N         122.2287  152.4644  147.8510 N.3     1  UNL1111    -0.2010
      5 N         116.6224  151.5361  146.3746 N.pl3   1  UNL1111    -0.3738
      6 C         120.0354  152.9689  146.3725 C.3     1  UNL1111     0.1120
      7 C         119.7709  154.3459  146.4851 C.3     1  UNL1111    -0.0230
      8 C         118.9814  152.0401  146.3185 C.3     1  UNL1111    -0.0010
      9 C         118.4295  154.7541  146.5418 C.3     1  UNL1111    -0.0637
     10 C         117.6530  152.4604  146.3546 C.3     1  UNL1111    -0.0219
     11 C         117.3885  153.8212  146.4938 C.3     1  UNL1111    -0.0573
     12 C         120.8409  155.3997  146.5206 C.3     1  UNL1111    -0.0317
     13 H         123.0347  153.0879  147.8897 H       1  UNL1111     0.2041
     14 H         122.4071  151.5347  148.2319 H       1  UNL1111     0.2041
     15 H         116.8157  150.5710  146.1393 H       1  UNL1111     0.1588
     16 H         115.6682  151.8537  146.2662 H       1  UNL1111     0.1588
     17 H         119.1972  150.9764  146.2445 H       1  UNL1111     0.1163
     18 H         118.1782  155.8096  146.6309 H       1  UNL1111     0.0927
     19 H         116.3625  154.1741  146.5612 H       1  UNL1111     0.0989
     20 H         121.6270  155.1440  147.2363 H       1  UNL1111     0.0416
     21 H         120.4347  156.3659  146.8408 H       1  UNL1111     0.0416
     22 H         121.2716  155.5375  145.5244 H       1  UNL1111     0.0416
@<TRIPOS>BOND
     1     1     2    2
     2     1     3    2
     3     1     4    1
     4     1     6    1
     5     5    10    1
     6     6     7   ar
     7     6     8   ar
     8     7     9   ar
     9     7    12    1
    10     8    10   ar
    11     9    11   ar
    12    10    11   ar
    13     4    13    1
    14     4    14    1
    15     5    15    1
    16     5    16    1
    17     8    17    1
    18     9    18    1
    19    11    19    1
    20    12    20    1
    21    12    21    1
    22    12    22    1
@<TRIPOS>MOLECULE
5745698
 40 44 0 0 0
SMALL
GASTEIGER

@<TRIPOS>ATOM
      1 BR        123.2804  155.1283  145.8167 Br      1  UNL111     -0.1168
      2 O         121.7726  153.4392  147.7387 O.3     1  UNL111     -0.5479
      3 O         123.2551  150.9958  147.1533 O.3     1  UNL111     -0.5485
      4 N         116.6770  153.1690  146.8575 N.4     1  UNL111      0.4274
      5 C         119.4964  153.8644  147.0524 C.3     1  UNL111      0.0501
      6 C         118.5923  154.5174  145.9988 C.3     1  UNL111     -0.0041
      7 C         117.5273  153.4489  145.5936 C.3     1  UNL111     -0.0208
      8 C         120.8560  154.5349  147.3848 C.3     1  UNL111      0.0832
      9 C         118.6685  153.5548  148.3201 C.3     1  UNL111     -0.0266
     10 C         120.0450  152.5861  146.5156 C.ar    1  UNL111      0.0223
     11 C         118.1375  152.1477  144.9852 C.3     1  UNL111     -0.0213
     12 C         117.4634  152.6559  148.0439 C.3     1  UNL111     -0.0365
     13 C         119.4316  151.7260  145.6227 C.ar    1  UNL111     -0.0426
     14 C         121.4081  155.4721  146.2707 C.3     1  UNL111      0.0556
     15 C         119.3640  155.0987  144.8476 C.2     1  UNL111     -0.0913
     16 C         121.3166  152.3792  146.9988 C.ar    1  UNL111      0.1039
     17 C         120.6302  155.5216  144.9813 C.2     1  UNL111     -0.0770
     18 C         115.4555  152.3249  146.5947 C.3     1  UNL111     -0.0442
     19 C         120.1230  150.5585  145.2884 C.ar    1  UNL111     -0.0573
     20 C         122.0022  151.2308  146.6864 C.ar    1  UNL111      0.0916
     21 C         121.3975  150.3039  145.8378 C.ar    1  UNL111     -0.0140
     22 H         123.5362  151.7993  147.6307 H       1  UNL111      0.3393
     23 H         116.2961  154.0818  147.1428 H       1  UNL111      0.1328
     24 H         118.0625  155.3681  146.4524 H       1  UNL111      0.0717
     25 H         116.8215  153.8838  144.8749 H       1  UNL111      0.0854
     26 H         120.7521  155.1414  148.2944 H       1  UNL111      0.1356
     27 H         118.3163  154.5008  148.7526 H       1  UNL111      0.0543
     28 H         119.2845  153.0780  149.0937 H       1  UNL111      0.0543
     29 H         118.3533  152.3482  143.9274 H       1  UNL111      0.0615
     30 H         117.4240  151.3194  145.0094 H       1  UNL111      0.0615
     31 H         117.7506  151.6201  147.8376 H       1  UNL111      0.0738
     32 H         116.7851  152.6596  148.9044 H       1  UNL111      0.0738
     33 H         121.4302  156.4954  146.6658 H       1  UNL111      0.0991
     34 H         118.8670  155.2331  143.8876 H       1  UNL111      0.0799
     35 H         121.1171  155.9805  144.1198 H       1  UNL111      0.0842
     36 H         115.7615  151.2898  146.4293 H       1  UNL111      0.0667
     37 H         114.9398  152.7327  145.7220 H       1  UNL111      0.0667
     38 H         114.8095  152.3945  147.4742 H       1  UNL111      0.0667
     39 H         119.7058  149.8434  144.5816 H       1  UNL111      0.0939
     40 H         121.9352  149.3976  145.5667 H       1  UNL111      0.1139
@<TRIPOS>UNITY_ATOM_ATTR
4 1
charge 1
@<TRIPOS>BOND
     1     1    14    1
     2     2     8    1
     3     2    16    1
     4     3    20    1
     5     4     7    1
     6     4    12    1
     7     4    18    1
     8     5     6    1
     9     5     8    1
    10     5     9    1
    11     5    10    1
    12     6     7    1
    13     6    15    1
    14     7    11    1
    15     8    14    1
    16     9    12    1
    17    10    13   ar
    18    10    16   ar
    19    11    13    1
    20    13    19   ar
    21    14    17    1
    22    15    17    2
    23    16    20   ar
    24    19    21   ar
    25    20    21   ar
    26     3    22    1
    27     4    23    1
    28     6    24    1
    29     7    25    1
    30     8    26    1
    31     9    27    1
    32     9    28    1
    33    11    29    1
    34    11    30    1
    35    12    31    1
    36    12    32    1
    37    14    33    1
    38    15    34    1
    39    17    35    1
    40    18    36    1
    41    18    37    1
    42    18    38    1
    43    19    39    1
    44    21    40    1
@<TRIPOS>MOLECULE
163285335
 66 71 0 0 0
SMALL
GASTEIGER

@<TRIPOS>ATOM
      1 O         119.2852  153.8774  145.4392 O.2     1  UNL111     -0.5432
      2 O         121.0100  153.1611  147.3120 O.3     1  UNL111     -0.3935
      3 O         118.7796  156.5620  146.1321 O.2     1  UNL111     -0.5661
      4 O         122.9824  152.0367  146.8469 O.3     1  UNL111     -0.3865
      5 O         122.2686  155.6323  146.6033 O.3     1  UNL111     -0.4257
      6 O         124.0990  154.7472  144.8142 O.3     1  UNL111     -0.4316
      7 O         126.1863  153.1959  145.3695 O.3     1  UNL111     -0.4315
      8 O         124.4791  149.6234  145.6193 O.co2   1  UNL111     -0.5546
      9 O         125.5340  150.5174  147.4434 O.co2   1  UNL111     -0.5546
     10 N         115.3451  150.4933  145.5832 N.4     1  UNL111      0.4275
     11 C         117.8218  151.9881  145.8002 C.3     1  UNL111      0.0537
     12 C         117.4808  150.8759  146.8050 C.3     1  UNL111     -0.0025
     13 C         119.2978  152.4288  145.6893 C.3     1  UNL111      0.0936
     14 C         115.9320  150.8767  146.9627 C.3     1  UNL111     -0.0206
     15 C         117.2101  151.6718  144.4207 C.3     1  UNL111     -0.0258
     16 C         117.2632  153.2794  146.3063 C.3     1  UNL111      0.0235
     17 C         115.3534  152.2231  147.5020 C.3     1  UNL111     -0.0213
     18 C         115.7016  151.4528  144.4710 C.3     1  UNL111     -0.0364
     19 C         120.1822  152.0651  146.9193 C.3     1  UNL111      0.0768
     20 C         116.1075  153.4427  147.0475 C.3     1  UNL111     -0.0425
     21 C         118.2233  151.0282  148.1051 C.2     1  UNL111     -0.0864
     22 C         118.1334  154.3175  146.0419 C.3     1  UNL111      0.1064
     23 C         119.4379  151.5957  148.1436 C.2     1  UNL111     -0.0634
     24 C         115.7877  154.7429  147.4398 C.3     1  UNL111     -0.0570
     25 C         113.8744  150.1826  145.6109 C.3     1  UNL111     -0.0442
     26 C         117.8504  155.6120  146.4338 C.3     1  UNL111      0.0937
     27 C         116.6452  155.8205  147.1195 C.3     1  UNL111     -0.0127
     28 C         122.2254  153.1862  146.5472 C.3     1  UNL111      0.1188
     29 C         123.0077  154.4417  146.9497 C.3     1  UNL111      0.0885
     30 C         124.3471  154.4600  146.2156 C.3     1  UNL111      0.0765
     31 C         125.1161  153.1281  146.3270 C.3     1  UNL111      0.0783
     32 C         124.1887  151.9379  146.0519 C.3     1  UNL111      0.1059
     33 C         118.6802  157.8050  146.8247 C.3     1  UNL111      0.0338
     34 C         124.8281  150.5667  146.3968 C.2     1  UNL111      0.0691
     35 C         119.9218  158.6204  146.5127 C.3     1  UNL111     -0.0340
     36 H         121.3381  155.4350  146.8397 H       1  UNL111      0.2441
     37 H         123.5021  155.5238  144.8356 H       1  UNL111      0.2418
     38 H         125.7715  153.5311  144.5505 H       1  UNL111      0.2419
     39 H         115.7940  149.5994  145.3366 H       1  UNL111      0.1328
     40 H         117.7855  149.9029  146.3931 H       1  UNL111      0.0720
     41 H         119.7654  151.9776  144.8044 H       1  UNL111      0.1422
     42 H         115.6263  150.0618  147.6309 H       1  UNL111      0.0854
     43 H         117.6870  150.7666  144.0215 H       1  UNL111      0.0544
     44 H         117.4201  152.4717  143.6987 H       1  UNL111      0.0544
     45 H         115.4267  152.1937  148.5973 H       1  UNL111      0.0615
     46 H         114.2926  152.3334  147.2599 H       1  UNL111      0.0615
     47 H         115.1458  152.3815  144.6339 H       1  UNL111      0.0738
     48 H         115.3535  151.0036  143.5342 H       1  UNL111      0.0738
     49 H         120.7968  151.1986  146.6378 H       1  UNL111      0.1271
     50 H         117.8018  150.6310  149.0257 H       1  UNL111      0.0812
     51 H         119.9859  151.6503  149.0834 H       1  UNL111      0.0915
     52 H         114.8969  154.9416  148.0329 H       1  UNL111      0.0939
     53 H         113.3115  151.1102  145.7340 H       1  UNL111      0.0667
     54 H         113.6854  149.4913  146.4359 H       1  UNL111      0.0667
     55 H         113.6170  149.7054  144.6614 H       1  UNL111      0.0667
     56 H         116.3572  156.8134  147.4536 H       1  UNL111      0.1142
     57 H         121.9647  153.2181  145.4812 H       1  UNL111      0.1708
     58 H         123.1722  154.4536  148.0334 H       1  UNL111      0.1333
     59 H         124.9717  155.2885  146.5688 H       1  UNL111      0.1245
     60 H         125.5515  153.0593  147.3299 H       1  UNL111      0.1247
     61 H         123.9101  151.9123  144.9895 H       1  UNL111      0.1358
     62 H         118.6245  157.6404  147.9074 H       1  UNL111      0.1121
     63 H         117.7951  158.3535  146.4834 H       1  UNL111      0.1121
     64 H         120.8225  158.0913  146.8398 H       1  UNL111      0.0424
     65 H         119.8850  159.5925  147.0126 H       1  UNL111      0.0424
     66 H         120.0189  158.7797  145.4339 H       1  UNL111      0.0424
@<TRIPOS>UNITY_ATOM_ATTR
8 1
charge -1
10 1
charge 1
@<TRIPOS>BOND
     1     1    13    1
     2     1    22    1
     3     2    19    1
     4     2    28    1
     5     3    26    1
     6     3    33    1
     7     4    28    1
     8     4    32    1
     9     5    29    1
    10     6    30    1
    11     7    31    1
    12     8    34   ar
    13     9    34   ar
    14    10    14    1
    15    10    18    1
    16    10    25    1
    17    11    12    1
    18    11    13    1
    19    11    15    1
    20    11    16    1
    21    12    14    1
    22    12    21    1
    23    13    19    1
    24    14    17    1
    25    15    18    1
    26    16    20   ar
    27    16    22   ar
    28    17    20    1
    29    19    23    1
    30    20    24   ar
    31    21    23    2
    32    22    26   ar
    33    24    27   ar
    34    26    27   ar
    35    28    29    1
    36    29    30    1
    37    30    31    1
    38    31    32    1
    39    32    34    1
    40    33    35    1
    41     5    36    1
    42     6    37    1
    43     7    38    1
    44    10    39    1
    45    12    40    1
    46    13    41    1
    47    14    42    1
    48    15    43    1
    49    15    44    1
    50    17    45    1
    51    17    46    1
    52    18    47    1
    53    18    48    1
    54    19    49    1
    55    21    50    1
    56    23    51    1
    57    24    52    1
    58    25    53    1
    59    25    54    1
    60    25    55    1
    61    27    56    1
    62    28    57    1
    63    29    58    1
    64    30    59    1
    65    31    60    1
    66    32    61    1
    67    33    62    1
    68    33    63    1
    69    35    64    1
    70    35    65    1
    71    35    66    1
@<TRIPOS>MOLECULE
2162
 54 55 0 0 0
SMALL
GASTEIGER

@<TRIPOS>ATOM
      1 CL        117.2542  150.7924  148.2644 Cl      1  UNL111     -0.1286
      2 O         123.2076  154.8154  146.1866 O.3     1  UNL111     -0.4445
      3 O         121.5678  151.4840  147.2647 O.3     1  UNL111     -0.5195
      4 O         116.1006  154.1251  147.1827 O.3     1  UNL111     -0.5221
      5 O         120.7012  152.0681  149.3179 O.2     1  UNL111     -0.3225
      6 O         116.3338  155.0482  145.0900 O.2     1  UNL111     -0.3230
      7 N         120.4168  155.5394  146.4355 N.pl3   1  UNL111     -0.3361
      8 N         126.7341  154.6402  145.0496 N.4     1  UNL111      0.4385
      9 C         118.7875  153.2962  147.0692 C.3     1  UNL111      0.0984
     10 C         120.2730  153.3856  147.3886 C.2     1  UNL111      0.1054
     11 C         118.2471  154.5869  146.4499 C.2     1  UNL111      0.0951
     12 C         121.0208  154.4660  147.0758 C.2     1  UNL111      0.0284
     13 C         119.0615  155.6264  146.1522 C.2     1  UNL111     -0.0059
     14 C         118.4983  152.0818  146.1761 C.3     1  UNL111     -0.0132
     15 C         122.4902  154.6077  147.4110 C.3     1  UNL111      0.0502
     16 C         120.8466  152.2481  148.1216 C.2     1  UNL111      0.2633
     17 C         118.5977  156.9297  145.5505 C.3     1  UNL111     -0.0232
     18 C         116.8000  154.6266  146.1365 C.2     1  UNL111      0.2604
     19 C         117.8221  150.9392  146.6404 C.3     1  UNL111      0.0257
     20 C         118.9424  152.0875  144.8355 C.3     1  UNL111     -0.0686
     21 C         117.5894  149.8533  145.7887 C.3     1  UNL111     -0.0499
     22 C         118.7056  151.0023  143.9904 C.3     1  UNL111     -0.0826
     23 C         118.0278  149.8855  144.4663 C.3     1  UNL111     -0.0783
     24 C         124.6103  154.6520  146.3476 C.3     1  UNL111      0.0106
     25 C         122.0744  150.2799  147.8521 C.3     1  UNL111      0.0483
     26 C         125.2659  154.8465  144.9806 C.3     1  UNL111     -0.0104
     27 C         114.6884  154.0850  146.9729 C.3     1  UNL111      0.0475
     28 C         122.8491  149.5293  146.7868 C.3     1  UNL111     -0.0316
     29 H         121.0091  156.3217  146.1694 H       1  UNL111      0.1831
     30 H         127.1584  154.7741  144.1215 H       1  UNL111      0.1392
     31 H         126.9737  153.6871  145.3544 H       1  UNL111      0.1392
     32 H         127.1891  155.3056  145.6886 H       1  UNL111      0.1392
     33 H         118.2823  153.1950  148.0367 H       1  UNL111      0.0980
     34 H         122.6399  155.4805  148.0573 H       1  UNL111      0.1102
     35 H         122.8895  153.7318  147.9311 H       1  UNL111      0.1102
     36 H         119.1680  157.7677  145.9675 H       1  UNL111      0.0469
     37 H         117.5461  157.1453  145.7585 H       1  UNL111      0.0469
     38 H         118.7512  156.9199  144.4668 H       1  UNL111      0.0469
     39 H         119.4739  152.9500  144.4353 H       1  UNL111      0.0916
     40 H         117.0603  148.9748  146.1518 H       1  UNL111      0.0990
     41 H         119.0436  151.0330  142.9573 H       1  UNL111      0.0879
     42 H         117.8358  149.0410  143.8089 H       1  UNL111      0.0889
     43 H         124.8262  153.6455  146.7247 H       1  UNL111      0.1014
     44 H         124.9886  155.3907  147.0633 H       1  UNL111      0.1014
     45 H         121.2413  149.6644  148.2094 H       1  UNL111      0.1153
     46 H         122.7391  150.5258  148.6878 H       1  UNL111      0.1153
     47 H         124.8733  154.1348  144.2471 H       1  UNL111      0.0841
     48 H         125.0967  155.8586  144.5994 H       1  UNL111      0.0841
     49 H         114.2256  153.6561  147.8659 H       1  UNL111      0.1105
     50 H         114.4465  153.4471  146.1170 H       1  UNL111      0.1105
     51 H         114.2940  155.0956  146.8283 H       1  UNL111      0.1105
     52 H         122.2045  149.2983  145.9322 H       1  UNL111      0.0427
     53 H         123.2572  148.5963  147.1850 H       1  UNL111      0.0427
     54 H         123.6734  150.1423  146.4069 H       1  UNL111      0.0427
@<TRIPOS>UNITY_ATOM_ATTR
8 1
charge 1
@<TRIPOS>BOND
     1     1    19    1
     2     2    15    1
     3     2    24    1
     4     3    16    1
     5     3    25    1
     6     4    18    1
     7     4    27    1
     8     5    16    2
     9     6    18    2
    10     7    12    1
    11     7    13    1
    12     8    26    1
    13     9    10    1
    14     9    11    1
    15     9    14    1
    16    10    12    2
    17    10    16    1
    18    11    13    2
    19    11    18    1
    20    12    15    1
    21    13    17    1
    22    14    19   ar
    23    14    20   ar
    24    19    21   ar
    25    20    22   ar
    26    21    23   ar
    27    22    23   ar
    28    24    26    1
    29    25    28    1
    30     7    29    1
    31     8    30    1
    32     8    31    1
    33     8    32    1
    34     9    33    1
    35    15    34    1
    36    15    35    1
    37    17    36    1
    38    17    37    1
    39    17    38    1
    40    20    39    1
    41    21    40    1
    42    22    41    1
    43    23    42    1
    44    24    43    1
    45    24    44    1
    46    25    45    1
    47    25    46    1
    48    26    47    1
    49    26    48    1
    50    27    49    1
    51    27    50    1
    52    27    51    1
    53    28    52    1
    54    28    53    1
    55    28    54    1
@<TRIPOS>MOLECULE
430245
 38 42 0 0 0
SMALL
GASTEIGER

@<TRIPOS>ATOM
      1 O         121.2415  154.3759  147.5765 O.3     1  UNL111     -0.5439
      2 O         119.3622  156.9616  146.4329 O.3     1  UNL111     -0.4348
      3 O         123.8188  153.1558  146.9266 O.3     1  UNL111     -0.5485
      4 N         117.2163  151.2010  147.0738 N.4     1  UNL111      0.4338
      5 C         119.0960  153.3929  147.0586 C.3     1  UNL111      0.0531
      6 C         117.9119  153.3647  146.0843 C.3     1  UNL111     -0.0024
      7 C         119.8386  154.7303  147.2627 C.3     1  UNL111      0.0902
      8 C         117.6374  151.8679  145.7669 C.3     1  UNL111     -0.0161
      9 C         120.2437  152.6261  146.4964 C.ar    1  UNL111      0.0232
     10 C         118.6668  152.7411  148.3938 C.3     1  UNL111     -0.0257
     11 C         118.8348  151.1012  145.1293 C.3     1  UNL111     -0.0211
     12 C         120.1763  151.5255  145.6608 C.ar    1  UNL111     -0.0426
     13 C         118.1762  151.3051  148.2191 C.3     1  UNL111     -0.0319
     14 C         119.8376  155.6782  146.0283 C.3     1  UNL111      0.0605
     15 C         118.1128  154.2333  144.8773 C.2     1  UNL111     -0.0870
     16 C         121.4322  153.2027  146.8888 C.ar    1  UNL111      0.1050
     17 C         118.9645  155.2688  144.8776 C.2     1  UNL111     -0.0672
     18 C         121.3888  150.9409  145.2879 C.ar    1  UNL111     -0.0573
     19 C         122.6295  152.6268  146.5421 C.ar    1  UNL111      0.0917
     20 C         122.6105  151.4808  145.7458 C.ar    1  UNL111     -0.0140
     21 H         120.1130  157.4323  146.8377 H       1  UNL111      0.2424
     22 H         123.6242  153.9519  147.4551 H       1  UNL111      0.3393
     23 H         117.0233  150.2044  146.8980 H       1  UNL111      0.1368
     24 H         116.3113  151.5975  147.3664 H       1  UNL111      0.1368
     25 H         117.0222  153.7728  146.5867 H       1  UNL111      0.0719
     26 H         119.4492  155.2603  148.1409 H       1  UNL111      0.1417
     27 H         116.7616  151.7641  145.1155 H       1  UNL111      0.0854
     28 H         117.8630  153.3419  148.8399 H       1  UNL111      0.0543
     29 H         119.4871  152.7417  149.1232 H       1  UNL111      0.0543
     30 H         118.8314  151.3056  144.0511 H       1  UNL111      0.0615
     31 H         118.7070  150.0202  145.2600 H       1  UNL111      0.0615
     32 H         118.9930  150.6037  148.0249 H       1  UNL111      0.0737
     33 H         117.6410  150.9611  149.1099 H       1  UNL111      0.0737
     34 H         120.8569  155.8148  145.6467 H       1  UNL111      0.1221
     35 H         117.4960  154.0681  143.9951 H       1  UNL111      0.0811
     36 H         119.0333  155.8978  143.9905 H       1  UNL111      0.0909
     37 H         121.4141  150.0790  144.6232 H       1  UNL111      0.0939
     38 H         123.5514  151.0223  145.4472 H       1  UNL111      0.1139
@<TRIPOS>UNITY_ATOM_ATTR
4 1
charge 1
@<TRIPOS>BOND
     1     1     7    1
     2     1    16    1
     3     2    14    1
     4     3    19    1
     5     4     8    1
     6     4    13    1
     7     5     6    1
     8     5     7    1
     9     5     9    1
    10     5    10    1
    11     6     8    1
    12     6    15    1
    13     7    14    1
    14     8    11    1
    15     9    12   ar
    16     9    16   ar
    17    10    13    1
    18    11    12    1
    19    12    18   ar
    20    14    17    1
    21    15    17    2
    22    16    19   ar
    23    18    20   ar
    24    19    20   ar
    25     2    21    1
    26     3    22    1
    27     4    23    1
    28     4    24    1
    29     6    25    1
    30     7    26    1
    31     8    27    1
    32    10    28    1
    33    10    29    1
    34    11    30    1
    35    11    31    1
    36    13    32    1
    37    13    33    1
    38    14    34    1
    39    15    35    1
    40    17    36    1
    41    18    37    1
    42    20    38    1
@<TRIPOS>MOLECULE
627484
 44 48 0 0 0
SMALL
GASTEIGER

@<TRIPOS>ATOM
      1 O         117.9638  153.8772  145.0208 O.3     1  UNL111     -0.5438
      2 O         122.4564  154.6288  145.9549 O.3     1  UNL111     -0.4361
      3 O         118.0220  155.1333  147.4885 O.3     1  UNL111     -0.4412
      4 O         115.7989  152.0181  145.6690 O.3     1  UNL111     -0.5485
      5 N         122.7006  152.0521  146.0105 N.4     1  UNL111      0.4300
      6 C         120.2615  153.5811  145.7240 C.3     1  UNL111      0.0716
      7 C         121.3708  154.0038  146.7003 C.3     1  UNL111      0.0452
      8 C         121.9938  152.6754  147.2484 C.3     1  UNL111      0.0007
      9 C         119.1881  154.6275  145.3543 C.3     1  UNL111      0.0914
     10 C         120.8898  152.8915  144.4829 C.3     1  UNL111     -0.0197
     11 C         119.3330  152.5955  146.3381 C.ar    1  UNL111      0.0304
     12 C         120.9159  154.9806  147.7864 C.3     1  UNL111     -0.0145
     13 C         118.8670  155.6679  146.4685 C.3     1  UNL111      0.0465
     14 C         121.0041  151.6900  147.9306 C.3     1  UNL111     -0.0148
     15 C         120.1235  156.1553  147.1866 C.3     1  UNL111     -0.0161
     16 C         121.7893  151.7052  144.8579 C.3     1  UNL111     -0.0337
     17 C         119.6417  151.6539  147.2994 C.ar    1  UNL111     -0.0397
     18 C         118.0650  152.7547  145.8142 C.ar    1  UNL111      0.1064
     19 C         123.6791  150.9681  146.3340 C.3     1  UNL111     -0.0427
     20 C         118.6163  150.7865  147.6827 C.ar    1  UNL111     -0.0569
     21 C         117.0545  151.8969  146.1701 C.ar    1  UNL111      0.0919
     22 C         117.3321  150.8971  147.1033 C.ar    1  UNL111     -0.0140
     23 H         122.2670  155.5776  145.8243 H       1  UNL111      0.2435
     24 H         117.1705  154.8988  147.0721 H       1  UNL111      0.2393
     25 H         115.8120  152.7493  145.0244 H       1  UNL111      0.3393
     26 H         123.2575  152.8600  145.6716 H       1  UNL111      0.1349
     27 H         122.8160  152.9100  147.9359 H       1  UNL111      0.0967
     28 H         119.5023  155.1749  144.4566 H       1  UNL111      0.1414
     29 H         121.4786  153.6238  143.9153 H       1  UNL111      0.0561
     30 H         120.1214  152.5334  143.7850 H       1  UNL111      0.0561
     31 H         121.7898  155.3874  148.3101 H       1  UNL111      0.0523
     32 H         120.3031  154.4715  148.5389 H       1  UNL111      0.0523
     33 H         118.3293  156.5158  146.0296 H       1  UNL111      0.1119
     34 H         120.8685  152.0208  148.9684 H       1  UNL111      0.0633
     35 H         121.4207  150.6787  147.9689 H       1  UNL111      0.0633
     36 H         120.7441  156.7400  146.5001 H       1  UNL111      0.0501
     37 H         119.8396  156.8247  148.0084 H       1  UNL111      0.0501
     38 H         121.2135  150.8193  145.1433 H       1  UNL111      0.0743
     39 H         122.4289  151.4392  144.0090 H       1  UNL111      0.0743
     40 H         123.1309  150.0692  146.6242 H       1  UNL111      0.0670
     41 H         124.3237  151.3157  147.1451 H       1  UNL111      0.0670
     42 H         124.2791  150.7788  145.4400 H       1  UNL111      0.0670
     43 H         118.7821  150.0277  148.4457 H       1  UNL111      0.0939
     44 H         116.5388  150.2197  147.4133 H       1  UNL111      0.1139
@<TRIPOS>UNITY_ATOM_ATTR
5 1
charge 1
@<TRIPOS>BOND
     1     1     9    1
     2     1    18    1
     3     2     7    1
     4     3    13    1
     5     4    21    1
     6     5     8    1
     7     5    16    1
     8     5    19    1
     9     6     7    1
    10     6     9    1
    11     6    10    1
    12     6    11    1
    13     7     8    1
    14     7    12    1
    15     8    14    1
    16     9    13    1
    17    10    16    1
    18    11    17   ar
    19    11    18   ar
    20    12    15    1
    21    13    15    1
    22    14    17    1
    23    17    20   ar
    24    18    21   ar
    25    20    22   ar
    26    21    22   ar
    27     2    23    1
    28     3    24    1
    29     4    25    1
    30     5    26    1
    31     8    27    1
    32     9    28    1
    33    10    29    1
    34    10    30    1
    35    12    31    1
    36    12    32    1
    37    13    33    1
    38    14    34    1
    39    14    35    1
    40    15    36    1
    41    15    37    1
    42    16    38    1
    43    16    39    1
    44    19    40    1
    45    19    41    1
    46    19    42    1
    47    20    43    1
    48    22    44    1
@<TRIPOS>MOLECULE
5463858
 44 48 0 0 0
SMALL
GASTEIGER

@<TRIPOS>ATOM
      1 O         117.9469  153.8650  145.0242 O.3     1  UNL111     -0.5438
      2 O         122.4268  154.6469  145.9296 O.3     1  UNL111     -0.4361
      3 O         118.0119  155.1614  147.4657 O.3     1  UNL111     -0.4412
      4 O         115.7912  152.0025  145.6913 O.3     1  UNL111     -0.5485
      5 N         122.6931  152.0585  145.9917 N.4     1  UNL111      0.4300
      6 C         120.2496  153.5766  145.7172 C.3     1  UNL111      0.0716
      7 C         121.3610  154.0072  146.6912 C.3     1  UNL111      0.0452
      8 C         121.9939  152.6824  147.2336 C.3     1  UNL111      0.0007
      9 C         119.1748  154.6188  145.3395 C.3     1  UNL111      0.0914
     10 C         120.8707  152.8817  144.4756 C.3     1  UNL111     -0.0197
     11 C         119.3254  152.5940  146.3428 C.ar    1  UNL111      0.0304
     12 C         120.8908  154.9797  147.7757 C.3     1  UNL111     -0.0145
     13 C         118.8625  155.6756  146.4390 C.3     1  UNL111      0.0465
     14 C         121.0106  151.6963  147.9258 C.3     1  UNL111     -0.0148
     15 C         120.1252  156.1582  147.1495 C.3     1  UNL111     -0.0161
     16 C         121.7715  151.6989  144.8509 C.3     1  UNL111     -0.0337
     17 C         119.6428  151.6568  147.3057 C.ar    1  UNL111     -0.0397
     18 C         118.0548  152.7488  145.8249 C.ar    1  UNL111      0.1064
     19 C         123.6804  150.9807  146.3095 C.3     1  UNL111     -0.0427
     20 C         118.6213  150.7890  147.6989 C.ar    1  UNL111     -0.0569
     21 C         117.0486  151.8889  146.1894 C.ar    1  UNL111      0.0919
     22 C         117.3339  150.8942  147.1258 C.ar    1  UNL111     -0.0140
     23 H         122.5792  155.5528  146.2655 H       1  UNL111      0.2435
     24 H         117.1649  154.9142  147.0475 H       1  UNL111      0.2393
     25 H         115.8006  152.7287  145.0408 H       1  UNL111      0.3393
     26 H         123.2389  152.8656  145.6349 H       1  UNL111      0.1349
     27 H         122.8206  152.9212  147.9142 H       1  UNL111      0.0967
     28 H         119.4834  155.1529  144.4319 H       1  UNL111      0.1414
     29 H         121.4557  153.6114  143.9009 H       1  UNL111      0.0561
     30 H         120.0980  152.5198  143.7843 H       1  UNL111      0.0561
     31 H         121.7549  155.3793  148.3210 H       1  UNL111      0.0523
     32 H         120.2588  154.4737  148.5139 H       1  UNL111      0.0523
     33 H         118.3328  156.5227  145.9894 H       1  UNL111      0.1119
     34 H         120.8828  152.0294  148.9638 H       1  UNL111      0.0633
     35 H         121.4293  150.6858  147.9628 H       1  UNL111      0.0633
     36 H         120.7613  156.7092  146.4482 H       1  UNL111      0.0501
     37 H         119.8522  156.8519  147.9541 H       1  UNL111      0.0501
     38 H         121.1994  150.8149  145.1496 H       1  UNL111      0.0743
     39 H         122.4032  151.4257  143.9984 H       1  UNL111      0.0743
     40 H         123.1401  150.0824  146.6157 H       1  UNL111      0.0670
     41 H         124.3355  151.3381  147.1078 H       1  UNL111      0.0670
     42 H         124.2679  150.7860  145.4083 H       1  UNL111      0.0670
     43 H         118.7932  150.0332  148.4634 H       1  UNL111      0.0939
     44 H         116.5439  150.2156  147.4418 H       1  UNL111      0.1139
@<TRIPOS>UNITY_ATOM_ATTR
5 1
charge 1
@<TRIPOS>BOND
     1     1     9    1
     2     1    18    1
     3     2     7    1
     4     3    13    1
     5     4    21    1
     6     5     8    1
     7     5    16    1
     8     5    19    1
     9     6     7    1
    10     6     9    1
    11     6    10    1
    12     6    11    1
    13     7     8    1
    14     7    12    1
    15     8    14    1
    16     9    13    1
    17    10    16    1
    18    11    17   ar
    19    11    18   ar
    20    12    15    1
    21    13    15    1
    22    14    17    1
    23    17    20   ar
    24    18    21   ar
    25    20    22   ar
    26    21    22   ar
    27     2    23    1
    28     3    24    1
    29     4    25    1
    30     5    26    1
    31     8    27    1
    32     9    28    1
    33    10    29    1
    34    10    30    1
    35    12    31    1
    36    12    32    1
    37    13    33    1
    38    14    34    1
    39    14    35    1
    40    15    36    1
    41    15    37    1
    42    16    38    1
    43    16    39    1
    44    19    40    1
    45    19    41    1
    46    19    42    1
    47    20    43    1
    48    22    44    1
@<TRIPOS>MOLECULE
5492914
 49 53 0 0 0
SMALL
GASTEIGER

@<TRIPOS>ATOM
      1 O         118.4180  152.2136  145.2952 O.3     1  UNL111     -0.5454
      2 O         116.4862  153.9472  146.2221 O.3     1  UNL111     -0.4510
      3 O         118.4274  149.3814  145.8894 O.3     1  UNL111     -0.5485
      4 N         122.9351  154.8119  146.0057 N.4     1  UNL111      0.4269
      5 C         120.2478  153.7438  145.7907 C.3     1  UNL111      0.0476
      6 C         120.6324  154.6951  146.9281 C.3     1  UNL111     -0.0179
      7 C         118.7472  153.6380  145.4357 C.3     1  UNL111      0.0850
      8 C         122.1310  154.4265  147.2644 C.3     1  UNL111     -0.0256
      9 C         121.0961  154.0183  144.5321 C.3     1  UNL111     -0.0272
     10 C         120.4777  152.3590  146.2781 C.ar    1  UNL111      0.0216
     11 C         119.7183  154.5875  148.1701 C.3     1  UNL111     -0.0396
     12 C         117.8323  154.3622  146.4553 C.3     1  UNL111      0.0453
     13 C         122.4281  152.9559  147.7118 C.3     1  UNL111     -0.0225
     14 C         118.2861  154.1091  147.8942 C.3     1  UNL111     -0.0225
     15 C         122.5986  153.9846  144.7875 C.3     1  UNL111     -0.0369
     16 C         121.5030  151.9319  147.1068 C.ar    1  UNL111     -0.0430
     17 C         119.4364  151.5419  145.9101 C.ar    1  UNL111      0.1044
     18 C         124.4237  154.8916  146.2335 C.3     1  UNL111     -0.0445
     19 C         121.5286  150.5755  147.4448 C.ar    1  UNL111     -0.0573
     20 C         119.4461  150.2078  146.2417 C.ar    1  UNL111      0.0916
     21 C         120.5109  149.7114  146.9918 C.ar    1  UNL111     -0.0140
     22 C         115.4922  154.7696  146.8269 C.3     1  UNL111      0.0014
     23 C         114.1333  154.3000  146.3450 C.3     1  UNL111     -0.0449
     24 H         117.7567  149.9373  145.4471 H       1  UNL111      0.3393
     25 H         122.6630  155.7787  145.7811 H       1  UNL111      0.1324
     26 H         120.5323  155.7266  146.5591 H       1  UNL111      0.0619
     27 H         118.5406  154.0750  144.4499 H       1  UNL111      0.1396
     28 H         122.4688  155.1227  148.0414 H       1  UNL111      0.0835
     29 H         120.8302  155.0087  144.1384 H       1  UNL111      0.0541
     30 H         120.8639  153.2991  143.7357 H       1  UNL111      0.0541
     31 H         119.6723  155.5825  148.6328 H       1  UNL111      0.0396
     32 H         120.1527  153.9403  148.9404 H       1  UNL111      0.0396
     33 H         117.9057  155.4398  146.2536 H       1  UNL111      0.1132
     34 H         122.2869  152.9114  148.7997 H       1  UNL111      0.0613
     35 H         123.4661  152.6712  147.5194 H       1  UNL111      0.0613
     36 H         117.6150  154.5978  148.6091 H       1  UNL111      0.0484
     37 H         118.1987  153.0393  148.1216 H       1  UNL111      0.0484
     38 H         122.9764  152.9701  144.9480 H       1  UNL111      0.0738
     39 H         123.1363  154.4231  143.9396 H       1  UNL111      0.0738
     40 H         124.8281  153.8834  146.3418 H       1  UNL111      0.0667
     41 H         124.6002  155.4896  147.1309 H       1  UNL111      0.0667
     42 H         124.8656  155.3873  145.3647 H       1  UNL111      0.0667
     43 H         122.3047  150.1742  148.0940 H       1  UNL111      0.0939
     44 H         120.5238  148.6601  147.2715 H       1  UNL111      0.1139
     45 H         115.6457  155.8156  146.5409 H       1  UNL111      0.0869
     46 H         115.5398  154.6814  147.9160 H       1  UNL111      0.0869
     47 H         114.0666  154.3679  145.2541 H       1  UNL111      0.0372
     48 H         113.3334  154.9016  146.7858 H       1  UNL111      0.0372
     49 H         113.9723  153.2495  146.6092 H       1  UNL111      0.0372
@<TRIPOS>UNITY_ATOM_ATTR
4 1
charge 1
@<TRIPOS>BOND
     1     1     7    1
     2     1    17    1
     3     2    12    1
     4     2    22    1
     5     3    20    1
     6     4     8    1
     7     4    15    1
     8     4    18    1
     9     5     6    1
    10     5     7    1
    11     5     9    1
    12     5    10    1
    13     6     8    1
    14     6    11    1
    15     7    12    1
    16     8    13    1
    17     9    15    1
    18    10    16   ar
    19    10    17   ar
    20    11    14    1
    21    12    14    1
    22    13    16    1
    23    16    19   ar
    24    17    20   ar
    25    19    21   ar
    26    20    21   ar
    27    22    23    1
    28     3    24    1
    29     4    25    1
    30     6    26    1
    31     7    27    1
    32     8    28    1
    33     9    29    1
    34     9    30    1
    35    11    31    1
    36    11    32    1
    37    12    33    1
    38    13    34    1
    39    13    35    1
    40    14    36    1
    41    14    37    1
    42    15    38    1
    43    15    39    1
    44    18    40    1
    45    18    41    1
    46    18    42    1
    47    19    43    1
    48    21    44    1
    49    22    45    1
    50    22    46    1
    51    23    47    1
    52    23    48    1
    53    23    49    1
@<TRIPOS>MOLECULE
5745818
 50 54 0 0 0
SMALL
GASTEIGER

@<TRIPOS>ATOM
      1 O         120.8141  152.0219  145.1181 O.3     1  UNL111     -0.5453
      2 O         120.2258  150.4897  147.3309 O.3     1  UNL111     -0.4416
      3 O         123.1455  153.1977  146.1906 O.3     1  UNL111     -0.5317
      4 O         125.4935  153.1165  146.3387 O.3     1  UNL111     -0.4214
      5 N         116.4090  154.6447  145.7893 N.4     1  UNL111      0.4269
      6 C         118.5453  152.6869  145.5873 C.3     1  UNL111      0.0474
      7 C         117.2633  152.4016  146.3721 C.3     1  UNL111     -0.0179
      8 C         119.4462  151.4969  145.2011 C.3     1  UNL111      0.0841
      9 C         116.7966  153.7452  146.9891 C.3     1  UNL111     -0.0256
     10 C         118.1912  153.5853  144.3790 C.3     1  UNL111     -0.0273
     11 C         119.5421  153.4070  146.4212 C.ar    1  UNL111      0.0221
     12 C         117.4056  151.2603  147.3811 C.3     1  UNL111     -0.0398
     13 C         119.4046  150.2884  146.1784 C.3     1  UNL111      0.0437
     14 C         117.8500  154.4243  147.9231 C.3     1  UNL111     -0.0225
     15 C         117.9907  150.0197  146.6932 C.3     1  UNL111     -0.0235
     16 C         117.5240  154.8974  144.7959 C.3     1  UNL111     -0.0369
     17 C         119.2727  154.2737  147.4594 C.ar    1  UNL111     -0.0429
     18 C         120.8238  153.0506  146.0419 C.ar    1  UNL111      0.1082
     19 C         115.7166  155.9228  146.1855 C.3     1  UNL111     -0.0445
     20 C         120.3732  154.8652  148.0777 C.ar    1  UNL111     -0.0568
     21 C         121.9317  153.6241  146.6347 C.ar    1  UNL111      0.1061
     22 C         121.6901  154.5581  147.6543 C.ar    1  UNL111     -0.0103
     23 C         124.3002  153.7157  146.8433 C.3     1  UNL111      0.1066
     24 C         125.7371  153.4706  144.9848 C.3     1  UNL111      0.0109
     25 H         121.1358  150.6404  147.0059 H       1  UNL111      0.2393
     26 H         115.6907  154.1168  145.2749 H       1  UNL111      0.1324
     27 H         116.4939  152.0626  145.6615 H       1  UNL111      0.0619
     28 H         119.1640  151.1336  144.2046 H       1  UNL111      0.1393
     29 H         115.8615  153.5974  147.5425 H       1  UNL111      0.0835
     30 H         117.5135  153.0357  143.7121 H       1  UNL111      0.0541
     31 H         119.0789  153.8230  143.7785 H       1  UNL111      0.0541
     32 H         116.4190  151.0132  147.7912 H       1  UNL111      0.0396
     33 H         118.0310  151.5514  148.2322 H       1  UNL111      0.0396
     34 H         119.7959  149.3995  145.6711 H       1  UNL111      0.1114
     35 H         117.7808  153.9384  148.9051 H       1  UNL111      0.0613
     36 H         117.6215  155.4824  148.0795 H       1  UNL111      0.0613
     37 H         117.3421  149.7083  145.8659 H       1  UNL111      0.0481
     38 H         118.0131  149.2006  147.4221 H       1  UNL111      0.0481
     39 H         118.2293  155.5991  145.2523 H       1  UNL111      0.0738
     40 H         117.0721  155.3838  143.9244 H       1  UNL111      0.0738
     41 H         116.4487  156.6116  146.6120 H       1  UNL111      0.0667
     42 H         114.9327  155.6779  146.9063 H       1  UNL111      0.0667
     43 H         115.2713  156.3519  145.2838 H       1  UNL111      0.0667
     44 H         120.2388  155.5486  148.9150 H       1  UNL111      0.0939
     45 H         122.5080  155.0439  148.1806 H       1  UNL111      0.1145
     46 H         124.2633  153.4709  147.9107 H       1  UNL111      0.1737
     47 H         124.3652  154.8042  146.7221 H       1  UNL111      0.1737
     48 H         126.6812  153.0139  144.6757 H       1  UNL111      0.0850
     49 H         125.8261  154.5563  144.8800 H       1  UNL111      0.0850
     50 H         124.9424  153.0927  144.3347 H       1  UNL111      0.0850
@<TRIPOS>UNITY_ATOM_ATTR
5 1
charge 1
@<TRIPOS>BOND
     1     1     8    1
     2     1    18    1
     3     2    13    1
     4     3    21    1
     5     3    23    1
     6     4    23    1
     7     4    24    1
     8     5     9    1
     9     5    16    1
    10     5    19    1
    11     6     7    1
    12     6     8    1
    13     6    10    1
    14     6    11    1
    15     7     9    1
    16     7    12    1
    17     8    13    1
    18     9    14    1
    19    10    16    1
    20    11    17   ar
    21    11    18   ar
    22    12    15    1
    23    13    15    1
    24    14    17    1
    25    17    20   ar
    26    18    21   ar
    27    20    22   ar
    28    21    22   ar
    29     2    25    1
    30     5    26    1
    31     7    27    1
    32     8    28    1
    33     9    29    1
    34    10    30    1
    35    10    31    1
    36    12    32    1
    37    12    33    1
    38    13    34    1
    39    14    35    1
    40    14    36    1
    41    15    37    1
    42    15    38    1
    43    16    39    1
    44    16    40    1
    45    19    41    1
    46    19    42    1
    47    19    43    1
    48    20    44    1
    49    22    45    1
    50    23    46    1
    51    23    47    1
    52    24    48    1
    53    24    49    1
    54    24    50    1
@<TRIPOS>MOLECULE
53327324
 58 62 0 0 0
SMALL
GASTEIGER

@<TRIPOS>ATOM
      1 O         119.3731  152.5598  147.6527 O.3     1  UNL111     -0.5437
      2 O         118.4156  150.9416  145.7485 O.3     1  UNL111     -0.4346
      3 O         117.8001  154.9698  147.2231 O.3     1  UNL111     -0.5485
      4 O         115.8899  152.0817  146.8294 O.3     1  UNL111     -0.4504
      5 O         114.9758  154.7165  145.7999 O.3     1  UNL111     -0.4625
      6 N         124.4904  152.9888  146.8598 N.4     1  UNL111      0.4275
      7 C         121.6761  152.2684  146.9713 C.3     1  UNL111      0.0534
      8 C         122.5768  151.7612  145.8375 C.3     1  UNL111     -0.0025
      9 C         123.6360  152.8777  145.5723 C.3     1  UNL111     -0.0206
     10 C         120.3360  151.5354  147.2265 C.3     1  UNL111      0.0914
     11 C         122.5014  152.4363  148.2652 C.3     1  UNL111     -0.0258
     12 C         121.1048  153.5912  146.5835 C.ar    1  UNL111      0.0232
     13 C         123.0242  154.2495  145.1479 C.3     1  UNL111     -0.0213
     14 C         123.7037  153.3632  148.0962 C.3     1  UNL111     -0.0364
     15 C         119.7934  150.6942  146.0265 C.3     1  UNL111      0.0643
     16 C         121.7128  154.5656  145.8111 C.ar    1  UNL111     -0.0425
     17 C         121.7918  151.3419  144.6253 C.2     1  UNL111     -0.0866
     18 C         119.8095  153.6999  147.0359 C.ar    1  UNL111      0.1050
     19 C         120.5384  150.8743  144.7275 C.2     1  UNL111     -0.0658
     20 C         125.7223  153.8419  146.7020 C.3     1  UNL111     -0.0442
     21 C         120.9971  155.7469  145.5972 C.ar    1  UNL111     -0.0573
     22 C         119.0900  154.8491  146.8184 C.ar    1  UNL111      0.0917
     23 C         119.6954  155.8943  146.1208 C.ar    1  UNL111     -0.0140
     24 C         117.5268  150.2956  146.6678 C.3     1  UNL111      0.0302
     25 C         116.0910  150.7324  146.3849 C.3     1  UNL111      0.0265
     26 C         114.5321  152.4900  146.5972 C.3     1  UNL111      0.0254
     27 C         114.3805  153.9834  146.8743 C.3     1  UNL111      0.0227
     28 C         114.8789  156.1193  146.0050 C.3     1  UNL111     -0.0027
     29 H         117.4308  154.0612  147.2580 H       1  UNL111      0.3393
     30 H         124.8576  152.0428  147.0311 H       1  UNL111      0.1328
     31 H         123.1100  150.8587  146.1707 H       1  UNL111      0.0720
     32 H         124.3399  152.5439  144.7997 H       1  UNL111      0.0854
     33 H         120.4412  150.8508  148.0783 H       1  UNL111      0.1419
     34 H         122.8570  151.4485  148.5876 H       1  UNL111      0.0544
     35 H         121.8818  152.8201  149.0862 H       1  UNL111      0.0544
     36 H         122.8316  154.2020  144.0679 H       1  UNL111      0.0615
     37 H         123.7276  155.0718  145.3066 H       1  UNL111      0.0615
     38 H         123.4157  154.4155  148.0096 H       1  UNL111      0.0738
     39 H         124.3813  153.2611  148.9511 H       1  UNL111      0.0738
     40 H         119.9126  149.6299  146.2744 H       1  UNL111      0.1242
     41 H         122.2565  151.3836  143.6418 H       1  UNL111      0.0812
     42 H         120.0108  150.5591  143.8279 H       1  UNL111      0.0912
     43 H         125.4310  154.8933  146.6620 H       1  UNL111      0.0667
     44 H         126.2354  153.5351  145.7873 H       1  UNL111      0.0667
     45 H         126.3652  153.6578  147.5672 H       1  UNL111      0.0667
     46 H         121.4115  156.5511  144.9923 H       1  UNL111      0.0939
     47 H         119.1322  156.8052  145.9309 H       1  UNL111      0.1139
     48 H         117.7963  150.5456  147.6988 H       1  UNL111      0.1006
     49 H         117.6123  149.2129  146.5248 H       1  UNL111      0.1006
     50 H         115.8873  150.6751  145.3097 H       1  UNL111      0.0998
     51 H         115.4000  150.0768  146.9267 H       1  UNL111      0.0998
     52 H         113.8835  151.9223  147.2731 H       1  UNL111      0.0997
     53 H         114.2579  152.2753  145.5578 H       1  UNL111      0.0997
     54 H         113.3171  154.2402  146.9297 H       1  UNL111      0.0991
     55 H         114.8761  154.2490  147.8146 H       1  UNL111      0.0991
     56 H         115.3830  156.6236  145.1763 H       1  UNL111      0.0817
     57 H         115.3662  156.4096  146.9404 H       1  UNL111      0.0817
     58 H         113.8295  156.4292  146.0166 H       1  UNL111      0.0817
@<TRIPOS>UNITY_ATOM_ATTR
6 1
charge 1
@<TRIPOS>BOND
     1     1    10    1
     2     1    18    1
     3     2    15    1
     4     2    24    1
     5     3    22    1
     6     4    25    1
     7     4    26    1
     8     5    27    1
     9     5    28    1
    10     6     9    1
    11     6    14    1
    12     6    20    1
    13     7     8    1
    14     7    10    1
    15     7    11    1
    16     7    12    1
    17     8     9    1
    18     8    17    1
    19     9    13    1
    20    10    15    1
    21    11    14    1
    22    12    16   ar
    23    12    18   ar
    24    13    16    1
    25    15    19    1
    26    16    21   ar
    27    17    19    2
    28    18    22   ar
    29    21    23   ar
    30    22    23   ar
    31    24    25    1
    32    26    27    1
    33     3    29    1
    34     6    30    1
    35     8    31    1
    36     9    32    1
    37    10    33    1
    38    11    34    1
    39    11    35    1
    40    13    36    1
    41    13    37    1
    42    14    38    1
    43    14    39    1
    44    15    40    1
    45    17    41    1
    46    19    42    1
    47    20    43    1
    48    20    44    1
    49    20    45    1
    50    21    46    1
    51    23    47    1
    52    24    48    1
    53    24    49    1
    54    25    50    1
    55    25    51    1
    56    26    52    1
    57    26    53    1
    58    27    54    1
    59    27    55    1
    60    28    56    1
    61    28    57    1
    62    28    58    1
@<TRIPOS>MOLECULE
5319433
 35 36 0 0 0
SMALL
GASTEIGER

@<TRIPOS>ATOM
      1 O         118.2515  152.0171  145.8732 O.3     1  UNL1111    -0.4595
      2 O         122.1506  154.7930  145.7260 O.2     1  UNL1111    -0.5796
      3 O         122.7986  152.1243  148.4296 O.2     1  UNL1111    -0.4268
      4 O         116.3666  150.7152  145.8917 O.2     1  UNL1111    -0.3231
      5 C         121.7318  151.3327  146.3820 C.3     1  UNL1111     0.0251
      6 C         121.0470  152.2291  145.3177 C.3     1  UNL1111     0.0126
      7 C         120.2363  153.3989  145.8414 C.3     1  UNL1111     0.0429
      8 C         120.7210  150.6371  147.3038 C.3     1  UNL1111    -0.0452
      9 C         122.5565  150.2551  145.6553 C.3     1  UNL1111    -0.0452
     10 C         118.8675  153.2646  146.1316 C.3     1  UNL1111     0.1077
     11 C         122.7233  152.1493  147.2039 C.2     1  UNL1111     0.0788
     12 C         120.8217  154.6616  146.0398 C.3     1  UNL1111     0.0549
     13 C         118.1062  154.3148  146.6494 C.3     1  UNL1111     0.0165
     14 C         120.0739  155.7148  146.5817 C.3     1  UNL1111    -0.0218
     15 C         118.7211  155.5422  146.8857 C.3     1  UNL1111    -0.0414
     16 C         116.6966  154.1024  146.9380 C.3     1  UNL1111    -0.0231
     17 C         116.1410  152.9133  146.6886 C.3     1  UNL1111     0.0534
     18 C         116.9065  151.7903  146.1247 C.2     1  UNL1111     0.2613
     19 C         122.4864  156.0229  145.0869 C.3     1  UNL1111     0.0300
     20 H         120.4026  151.6090  144.6796 H       1  UNL1111     0.0595
     21 H         121.8053  152.6178  144.6236 H       1  UNL1111     0.0595
     22 H         119.9906  150.0591  146.7274 H       1  UNL1111     0.0331
     23 H         120.1794  151.3542  147.9296 H       1  UNL1111     0.0331
     24 H         121.2229  149.9419  147.9874 H       1  UNL1111     0.0331
     25 H         121.9165  149.6136  145.0394 H       1  UNL1111     0.0331
     26 H         123.0897  149.6151  146.3682 H       1  UNL1111     0.0331
     27 H         123.3123  150.7053  145.0009 H       1  UNL1111     0.0331
     28 H         123.4464  152.7464  146.6214 H       1  UNL1111     0.1931
     29 H         120.5333  156.6756  146.7949 H       1  UNL1111     0.1117
     30 H         118.1623  156.3741  147.3075 H       1  UNL1111     0.0986
     31 H         116.1129  154.9159  147.3547 H       1  UNL1111     0.1023
     32 H         115.0949  152.7172  146.8893 H       1  UNL1111     0.1380
     33 H         123.4646  155.8943  144.6134 H       1  UNL1111     0.1070
     34 H         122.5739  156.8316  145.8185 H       1  UNL1111     0.1070
     35 H         121.7662  156.2802  144.3019 H       1  UNL1111     0.1070
@<TRIPOS>BOND
     1     1    10   ar
     2     1    18   ar
     3     2    12    1
     4     2    19    1
     5     3    11    2
     6     4    18    2
     7     5     6    1
     8     5     8    1
     9     5     9    1
    10     5    11    1
    11     6     7    1
    12     7    10   ar
    13     7    12   ar
    14    10    13   ar
    15    12    14   ar
    16    13    15   ar
    17    13    16   ar
    18    14    15   ar
    19    16    17   ar
    20    17    18   ar
    21     6    20    1
    22     6    21    1
    23     8    22    1
    24     8    23    1
    25     8    24    1
    26     9    25    1
    27     9    26    1
    28     9    27    1
    29    11    28    1
    30    14    29    1
    31    15    30    1
    32    16    31    1
    33    17    32    1
    34    19    33    1
    35    19    34    1
    36    19    35    1
@<TRIPOS>MOLECULE
5462506
 47 51 0 0 0
SMALL
GASTEIGER

@<TRIPOS>ATOM
      1 O         118.4501  153.5218  147.8376 O.3     1  UNL111     -0.5437
      2 O         116.8588  152.2641  146.1792 O.3     1  UNL111     -0.4442
      3 O         117.8405  156.2874  147.1556 O.3     1  UNL111     -0.5485
      4 N         123.2758  151.9807  146.7328 N.4     1  UNL111      0.4275
      5 C         120.4084  152.3165  147.0850 C.3     1  UNL111      0.0534
      6 C         120.9666  151.3537  146.0304 C.3     1  UNL111     -0.0025
      7 C         122.3078  151.9725  145.5232 C.3     1  UNL111     -0.0206
      8 C         118.9284  152.1662  147.5117 C.3     1  UNL111      0.0911
      9 C         121.3651  152.3691  148.2970 C.3     1  UNL111     -0.0258
     10 C         120.2971  153.6849  146.5026 C.ar    1  UNL111      0.0232
     11 C         122.1513  153.3846  144.8767 C.3     1  UNL111     -0.0213
     12 C         122.7872  152.7817  147.9198 C.3     1  UNL111     -0.0364
     13 C         117.9985  151.4534  146.4732 C.3     1  UNL111      0.0621
     14 C         121.1164  154.2489  145.5408 C.ar    1  UNL111     -0.0425
     15 C         119.9739  151.0400  144.9473 C.2     1  UNL111     -0.0867
     16 C         119.1944  154.3290  147.0166 C.ar    1  UNL111      0.1050
     17 C         118.6509  151.0936  145.1610 C.2     1  UNL111     -0.0660
     18 C         124.6971  152.3297  146.3733 C.3     1  UNL111     -0.0442
     19 C         120.8442  155.5681  145.1684 C.ar    1  UNL111     -0.0573
     20 C         118.9201  155.6277  146.6624 C.ar    1  UNL111      0.0917
     21 C         119.7593  156.2614  145.7460 C.ar    1  UNL111     -0.0140
     22 C         115.6268  151.5472  146.2239 C.3     1  UNL111      0.0033
     23 C         114.5015  152.5060  145.8917 C.3     1  UNL111     -0.0446
     24 H         117.3199  155.6277  147.6529 H       1  UNL111      0.3393
     25 H         123.3278  151.0036  147.0520 H       1  UNL111      0.1328
     26 H         121.1960  150.3880  146.5044 H       1  UNL111      0.0720
     27 H         122.7763  151.2960  144.7975 H       1  UNL111      0.0854
     28 H         118.8694  151.5931  148.4463 H       1  UNL111      0.1419
     29 H         121.3946  151.3774  148.7678 H       1  UNL111      0.0544
     30 H         120.9978  153.0602  149.0669 H       1  UNL111      0.0544
     31 H         121.8250  153.2368  143.8387 H       1  UNL111      0.0615
     32 H         123.1064  153.9156  144.8340 H       1  UNL111      0.0615
     33 H         122.8642  153.8437  147.6669 H       1  UNL111      0.0738
     34 H         123.4721  152.5756  148.7497 H       1  UNL111      0.0738
     35 H         117.6767  150.5067  146.9297 H       1  UNL111      0.1239
     36 H         120.3326  150.7209  143.9700 H       1  UNL111      0.0812
     37 H         117.9751  150.8330  144.3473 H       1  UNL111      0.0912
     38 H         124.7639  153.3990  146.1628 H       1  UNL111      0.0667
     39 H         124.9860  151.7335  145.5043 H       1  UNL111      0.0667
     40 H         125.3281  152.0701  147.2278 H       1  UNL111      0.0667
     41 H         121.4407  156.0698  144.4086 H       1  UNL111      0.0939
     42 H         119.5445  157.2842  145.4437 H       1  UNL111      0.1139
     43 H         115.4773  151.1350  147.2279 H       1  UNL111      0.0873
     44 H         115.6461  150.7279  145.4971 H       1  UNL111      0.0873
     45 H         114.4772  153.3340  146.6078 H       1  UNL111      0.0372
     46 H         113.5351  151.9942  145.9110 H       1  UNL111      0.0372
     47 H         114.6493  152.9460  144.9000 H       1  UNL111      0.0372
@<TRIPOS>UNITY_ATOM_ATTR
4 1
charge 1
@<TRIPOS>BOND
     1     1     8    1
     2     1    16    1
     3     2    13    1
     4     2    22    1
     5     3    20    1
     6     4     7    1
     7     4    12    1
     8     4    18    1
     9     5     6    1
    10     5     8    1
    11     5     9    1
    12     5    10    1
    13     6     7    1
    14     6    15    1
    15     7    11    1
    16     8    13    1
    17     9    12    1
    18    10    14   ar
    19    10    16   ar
    20    11    14    1
    21    13    17    1
    22    14    19   ar
    23    15    17    2
    24    16    20   ar
    25    19    21   ar
    26    20    21   ar
    27    22    23    1
    28     3    24    1
    29     4    25    1
    30     6    26    1
    31     7    27    1
    32     8    28    1
    33     9    29    1
    34     9    30    1
    35    11    31    1
    36    11    32    1
    37    12    33    1
    38    12    34    1
    39    13    35    1
    40    15    36    1
    41    17    37    1
    42    18    38    1
    43    18    39    1
    44    18    40    1
    45    19    41    1
    46    21    42    1
    47    22    43    1
    48    22    44    1
    49    23    45    1
    50    23    46    1
    51    23    47    1
@<TRIPOS>MOLECULE
5491585
 49 53 0 0 0
SMALL
GASTEIGER

@<TRIPOS>ATOM
      1 O         118.8985  152.3934  147.7945 O.2     1  UNL111     -0.5430
      2 O         118.2161  150.2837  146.2898 O.3     1  UNL111     -0.4348
      3 O         116.9269  154.4830  147.1474 O.3     1  UNL111     -0.4563
      4 O         116.6242  152.5925  145.8049 O.2     1  UNL111     -0.3367
      5 N         123.8938  153.4881  146.7548 N.4     1  UNL111      0.4275
      6 C         121.2204  152.3938  147.0859 C.3     1  UNL111      0.0533
      7 C         122.1399  151.9053  145.9544 C.3     1  UNL111     -0.0026
      8 C         123.0190  153.1237  145.5310 C.3     1  UNL111     -0.0206
      9 C         120.0193  151.4976  147.4820 C.3     1  UNL111      0.0903
     10 C         122.0606  152.8126  148.3098 C.3     1  UNL111     -0.0259
     11 C         120.4417  153.5700  146.5932 C.3     1  UNL111      0.0244
     12 C         122.1998  154.3435  145.0077 C.3     1  UNL111     -0.0213
     13 C         123.1085  153.8756  147.9871 C.3     1  UNL111     -0.0364
     14 C         120.8716  154.5290  145.6897 C.3     1  UNL111     -0.0423
     15 C         119.6203  150.4365  146.4156 C.3     1  UNL111      0.0605
     16 C         121.3689  151.2712  144.8252 C.2     1  UNL111     -0.0869
     17 C         119.1505  153.5241  147.0673 C.3     1  UNL111      0.1138
     18 C         120.2149  150.6226  145.0480 C.2     1  UNL111     -0.0672
     19 C         124.9831  154.4844  146.4499 C.3     1  UNL111     -0.0442
     20 C         119.9754  155.5504  145.3592 C.3     1  UNL111     -0.0561
     21 C         118.2483  154.5055  146.7182 C.3     1  UNL111      0.1320
     22 C         118.6717  155.5513  145.8920 C.3     1  UNL111     -0.0054
     23 C         116.1939  153.4420  146.5773 C.2     1  UNL111      0.2291
     24 C         114.7733  153.5205  147.0874 C.3     1  UNL111      0.0596
     25 C         113.8063  152.7915  146.1717 C.3     1  UNL111     -0.0378
     26 H         117.8202  151.1679  146.1291 H       1  UNL111      0.2424
     27 H         124.4009  152.6259  146.9990 H       1  UNL111      0.1328
     28 H         122.8080  151.1207  146.3388 H       1  UNL111      0.0720
     29 H         123.7349  152.8136  144.7596 H       1  UNL111      0.0854
     30 H         120.2357  150.9588  148.4137 H       1  UNL111      0.1417
     31 H         122.5684  151.9248  148.7098 H       1  UNL111      0.0544
     32 H         121.4222  153.1903  149.1191 H       1  UNL111      0.0544
     33 H         121.9883  154.1624  143.9454 H       1  UNL111      0.0615
     34 H         122.7752  155.2719  145.0601 H       1  UNL111      0.0615
     35 H         122.6661  154.8612  147.8111 H       1  UNL111      0.0738
     36 H         123.8251  153.9622  148.8113 H       1  UNL111      0.0738
     37 H         119.9957  149.4662  146.7658 H       1  UNL111      0.1221
     38 H         121.7697  151.2972  143.8136 H       1  UNL111      0.0812
     39 H         119.6972  150.1365  144.2222 H       1  UNL111      0.0909
     40 H         124.5411  155.4746  146.3222 H       1  UNL111      0.0667
     41 H         125.5001  154.1594  145.5437 H       1  UNL111      0.0667
     42 H         125.6779  154.4845  147.2942 H       1  UNL111      0.0667
     43 H         120.2536  156.3297  144.6516 H       1  UNL111      0.0940
     44 H         117.9729  156.3356  145.6098 H       1  UNL111      0.1154
     45 H         114.4752  154.5734  147.1433 H       1  UNL111      0.0846
     46 H         114.7430  153.0901  148.0931 H       1  UNL111      0.0846
     47 H         113.8419  153.2030  145.1573 H       1  UNL111      0.0335
     48 H         112.7819  152.8874  146.5447 H       1  UNL111      0.0335
     49 H         114.0489  151.7257  146.1086 H       1  UNL111      0.0335
@<TRIPOS>UNITY_ATOM_ATTR
5 1
charge 1
@<TRIPOS>BOND
     1     1     9    1
     2     1    17    1
     3     2    15    1
     4     3    21    1
     5     3    23    1
     6     4    23    2
     7     5     8    1
     8     5    13    1
     9     5    19    1
    10     6     7    1
    11     6     9    1
    12     6    10    1
    13     6    11    1
    14     7     8    1
    15     7    16    1
    16     8    12    1
    17     9    15    1
    18    10    13    1
    19    11    14   ar
    20    11    17   ar
    21    12    14    1
    22    14    20   ar
    23    15    18    1
    24    16    18    2
    25    17    21   ar
    26    20    22   ar
    27    21    22   ar
    28    23    24    1
    29    24    25    1
    30     2    26    1
    31     5    27    1
    32     7    28    1
    33     8    29    1
    34     9    30    1
    35    10    31    1
    36    10    32    1
    37    12    33    1
    38    12    34    1
    39    13    35    1
    40    13    36    1
    41    15    37    1
    42    16    38    1
    43    18    39    1
    44    19    40    1
    45    19    41    1
    46    19    42    1
    47    20    43    1
    48    22    44    1
    49    24    45    1
    50    24    46    1
    51    25    47    1
    52    25    48    1
    53    25    49    1
@<TRIPOS>MOLECULE
5745697
 56 61 0 0 0
SMALL
GASTEIGER

@<TRIPOS>ATOM
      1 O         119.9975  153.9127  147.6484 O.3     1  UNL111     -0.5454
      2 O         119.8529  155.3542  145.3268 O.3     1  UNL111     -0.4416
      3 O         122.0415  152.2012  146.7085 O.3     1  UNL111     -0.5550
      4 N         115.1222  152.2992  146.9968 N.4     1  UNL111      0.4269
      5 C         117.6476  153.7278  147.1399 C.3     1  UNL111      0.0474
      6 C         116.4892  154.2234  146.2719 C.3     1  UNL111     -0.0179
      7 C         118.7836  154.7166  147.4725 C.3     1  UNL111      0.0841
      8 C         115.7419  152.9706  145.7470 C.3     1  UNL111     -0.0256
      9 C         117.0633  153.0438  148.3980 C.3     1  UNL111     -0.0273
     10 C         118.4756  152.7313  146.4134 C.ar    1  UNL111      0.0219
     11 C         116.9233  155.2026  145.1790 C.3     1  UNL111     -0.0398
     12 C         119.0430  155.8206  146.4091 C.3     1  UNL111      0.0437
     13 C         116.6345  151.9843  144.9266 C.3     1  UNL111     -0.0225
     14 C         117.7458  156.3427  145.7933 C.3     1  UNL111     -0.0235
     15 C         116.1218  151.8868  148.0576 C.3     1  UNL111     -0.0369
     16 C         118.0433  151.8565  145.4375 C.ar    1  UNL111     -0.0430
     17 C         119.7965  152.8322  146.8098 C.ar    1  UNL111      0.1062
     18 C         114.1592  151.1862  146.6752 C.3     1  UNL111     -0.0445
     19 C         118.9958  150.9818  144.9163 C.ar    1  UNL111     -0.0570
     20 C         120.7631  151.9967  146.2884 C.ar    1  UNL111      0.0962
     21 C         120.3406  151.0371  145.3559 C.ar    1  UNL111     -0.0123
     22 C         123.0800  151.6991  145.8695 C.3     1  UNL111      0.0643
     23 C         124.3510  152.4342  146.2119 C.ar    1  UNL111     -0.0374
     24 C         124.6147  153.6886  145.6410 C.ar    1  UNL111     -0.0702
     25 C         125.2682  151.8976  147.1253 C.ar    1  UNL111     -0.0702
     26 C         125.7832  154.3811  145.9605 C.ar    1  UNL111     -0.0836
     27 C         126.4369  152.5922  147.4430 C.ar    1  UNL111     -0.0836
     28 C         126.6950  153.8313  146.8591 C.ar    1  UNL111     -0.0863
     29 H         120.6804  155.0178  145.7254 H       1  UNL111      0.2393
     30 H         114.5352  153.0236  147.4325 H       1  UNL111      0.1324
     31 H         115.7989  154.7936  146.9124 H       1  UNL111      0.0619
     32 H         118.5666  155.2135  148.4267 H       1  UNL111      0.1393
     33 H         114.8830  153.2764  145.1375 H       1  UNL111      0.0835
     34 H         116.5132  153.7901  148.9866 H       1  UNL111      0.0541
     35 H         117.8560  152.6642  149.0557 H       1  UNL111      0.0541
     36 H         116.0343  155.6215  144.6925 H       1  UNL111      0.0396
     37 H         117.4997  154.7006  144.3941 H       1  UNL111      0.0396
     38 H         119.5964  156.6446  146.8735 H       1  UNL111      0.1114
     39 H         116.7011  152.3757  143.9030 H       1  UNL111      0.0613
     40 H         116.1753  150.9942  144.8552 H       1  UNL111      0.0613
     41 H         117.1530  156.8647  146.5537 H       1  UNL111      0.0481
     42 H         117.9781  157.0653  145.0018 H       1  UNL111      0.0481
     43 H         116.6567  151.0048  147.6918 H       1  UNL111      0.0738
     44 H         115.5464  151.5960  148.9435 H       1  UNL111      0.0738
     45 H         114.7193  150.3100  146.3424 H       1  UNL111      0.0667
     46 H         113.4748  151.5395  145.8999 H       1  UNL111      0.0667
     47 H         113.6007  150.9571  147.5869 H       1  UNL111      0.0667
     48 H         118.7277  150.2651  144.1415 H       1  UNL111      0.0939
     49 H         121.0451  150.3328  144.9207 H       1  UNL111      0.1143
     50 H         122.8602  151.8628  144.8062 H       1  UNL111      0.1283
     51 H         123.2047  150.6228  146.0387 H       1  UNL111      0.1283
     52 H         123.9084  154.1337  144.9438 H       1  UNL111      0.0920
     53 H         125.0781  150.9367  147.5978 H       1  UNL111      0.0920
     54 H         125.9820  155.3504  145.5104 H       1  UNL111      0.0879
     55 H         127.1462  152.1684  148.1495 H       1  UNL111      0.0879
     56 H         127.6053  154.3708  147.1083 H       1  UNL111      0.0874
@<TRIPOS>UNITY_ATOM_ATTR
4 1
charge 1
@<TRIPOS>BOND
     1     1     7    1
     2     1    17    1
     3     2    12    1
     4     3    20    1
     5     3    22    1
     6     4     8    1
     7     4    15    1
     8     4    18    1
     9     5     6    1
    10     5     7    1
    11     5     9    1
    12     5    10    1
    13     6     8    1
    14     6    11    1
    15     7    12    1
    16     8    13    1
    17     9    15    1
    18    10    16   ar
    19    10    17   ar
    20    11    14    1
    21    12    14    1
    22    13    16    1
    23    16    19   ar
    24    17    20   ar
    25    19    21   ar
    26    20    21   ar
    27    22    23    1
    28    23    24   ar
    29    23    25   ar
    30    24    26   ar
    31    25    27   ar
    32    26    28   ar
    33    27    28   ar
    34     2    29    1
    35     4    30    1
    36     6    31    1
    37     7    32    1
    38     8    33    1
    39     9    34    1
    40     9    35    1
    41    11    36    1
    42    11    37    1
    43    12    38    1
    44    13    39    1
    45    13    40    1
    46    14    41    1
    47    14    42    1
    48    15    43    1
    49    15    44    1
    50    18    45    1
    51    18    46    1
    52    18    47    1
    53    19    48    1
    54    21    49    1
    55    22    50    1
    56    22    51    1
    57    24    52    1
    58    25    53    1
    59    26    54    1
    60    27    55    1
    61    28    56    1
@<TRIPOS>MOLECULE
118701641
 46 50 0 0 0
SMALL
GASTEIGER

@<TRIPOS>ATOM
      1 O         121.2903  152.5310  147.4605 O.2     1  UNL111     -0.5395
      2 O         122.8696  153.7539  145.6627 O.3     1  UNL111     -0.5034
      3 O         121.5045  149.6599  147.0730 O.2     1  UNL111     -0.5485
      4 O         123.7703  154.6727  147.5596 O.2     1  UNL111     -0.3412
      5 N         116.4948  154.5255  146.9300 N.4     1  UNL111      0.4275
      6 C         119.3252  153.8620  146.9264 C.3     1  UNL111      0.0568
      7 C         118.7177  154.7333  145.8163 C.3     1  UNL111     -0.0012
      8 C         117.2499  154.2403  145.6094 C.3     1  UNL111     -0.0204
      9 C         120.8615  153.9020  147.1286 C.3     1  UNL111      0.1046
     10 C         118.5644  154.0802  148.2512 C.3     1  UNL111     -0.0252
     11 C         119.2111  152.4300  146.5202 C.3     1  UNL111      0.0241
     12 C         117.1400  152.7449  145.1768 C.3     1  UNL111     -0.0213
     13 C         117.0649  153.8165  148.1376 C.3     1  UNL111     -0.0363
     14 C         118.1911  151.8548  145.7807 C.3     1  UNL111     -0.0424
     15 C         121.6653  154.4886  145.9253 C.3     1  UNL111      0.1110
     16 C         119.5613  154.7246  144.5676 C.2     1  UNL111     -0.0823
     17 C         120.3301  151.7308  146.9069 C.3     1  UNL111      0.1061
     18 C         120.8954  154.5885  144.6298 C.2     1  UNL111     -0.0495
     19 C         115.0017  154.3437  146.8303 C.3     1  UNL111     -0.0442
     20 C         118.2761  150.4813  145.5344 C.3     1  UNL111     -0.0573
     21 C         120.4208  150.3780  146.6802 C.3     1  UNL111      0.0919
     22 C         119.3807  149.7419  146.0043 C.3     1  UNL111     -0.0140
     23 C         123.8542  153.9378  146.5854 C.2     1  UNL111      0.2147
     24 C         125.0601  153.1260  146.2280 C.3     1  UNL111      0.0550
     25 H         122.1168  150.2861  147.5025 H       1  UNL111      0.3393
     26 H         116.6151  155.5324  147.1079 H       1  UNL111      0.1328
     27 H         118.6821  155.7808  146.1491 H       1  UNL111      0.0721
     28 H         116.7506  154.8687  144.8615 H       1  UNL111      0.0854
     29 H         121.1071  154.5076  148.0107 H       1  UNL111      0.1477
     30 H         118.7181  155.1170  148.5792 H       1  UNL111      0.0545
     31 H         118.9677  153.4441  149.0499 H       1  UNL111      0.0545
     32 H         117.2794  152.7083  144.0882 H       1  UNL111      0.0615
     33 H         116.1465  152.3361  145.3809 H       1  UNL111      0.0615
     34 H         116.8307  152.7512  148.0478 H       1  UNL111      0.0738
     35 H         116.5446  154.2105  149.0177 H       1  UNL111      0.0738
     36 H         121.9329  155.5293  146.1610 H       1  UNL111      0.1530
     37 H         119.0903  154.8657  143.5963 H       1  UNL111      0.0821
     38 H         121.4820  154.6205  143.7127 H       1  UNL111      0.0975
     39 H         114.7699  153.2777  146.7875 H       1  UNL111      0.0667
     40 H         114.6533  154.8636  145.9346 H       1  UNL111      0.0667
     41 H         114.5531  154.7950  147.7196 H       1  UNL111      0.0667
     42 H         117.5129  149.9687  144.9517 H       1  UNL111      0.0939
     43 H         119.4466  148.6746  145.8033 H       1  UNL111      0.1139
     44 H         124.7768  152.0788  146.0939 H       1  UNL111      0.0793
     45 H         125.7884  153.1824  147.0421 H       1  UNL111      0.0793
     46 H         125.5147  153.5215  145.3166 H       1  UNL111      0.0793
@<TRIPOS>UNITY_ATOM_ATTR
5 1
charge 1
@<TRIPOS>BOND
     1     1     9    1
     2     1    17    1
     3     2    15    1
     4     2    23    1
     5     3    21    1
     6     4    23    2
     7     5     8    1
     8     5    13    1
     9     5    19    1
    10     6     7    1
    11     6     9    1
    12     6    10    1
    13     6    11    1
    14     7     8    1
    15     7    16    1
    16     8    12    1
    17     9    15    1
    18    10    13    1
    19    11    14   ar
    20    11    17   ar
    21    12    14    1
    22    14    20   ar
    23    15    18    1
    24    16    18    2
    25    17    21   ar
    26    20    22   ar
    27    21    22   ar
    28    23    24    1
    29     3    25    1
    30     5    26    1
    31     7    27    1
    32     8    28    1
    33     9    29    1
    34    10    30    1
    35    10    31    1
    36    12    32    1
    37    12    33    1
    38    13    34    1
    39    13    35    1
    40    15    36    1
    41    16    37    1
    42    18    38    1
    43    19    39    1
    44    19    40    1
    45    19    41    1
    46    20    42    1
    47    22    43    1
    48    24    44    1
    49    24    45    1
    50    24    46    1
@<TRIPOS>MOLECULE
124037289
 44 48 0 0 0
SMALL
GASTEIGER

@<TRIPOS>ATOM
      1 O         118.0530  153.0532  145.1359 O.3     1  UNL111     -0.5437
      2 O         116.7884  154.5494  146.9626 O.3     1  UNL111     -0.4467
      3 O         117.0607  150.3665  145.6619 O.3     1  UNL111     -0.5485
      4 N         123.1480  153.7357  145.9024 N.4     1  UNL111      0.4275
      5 C         120.2450  153.8661  145.7759 C.3     1  UNL111      0.0534
      6 C         121.0236  154.6271  146.8574 C.3     1  UNL111     -0.0025
      7 C         122.2869  153.7711  147.1893 C.3     1  UNL111     -0.0206
      8 C         118.7812  154.2850  145.4883 C.3     1  UNL111      0.0909
      9 C         121.0901  153.7799  144.4862 C.3     1  UNL111     -0.0258
     10 C         119.9582  152.4843  146.2602 C.ar    1  UNL111      0.0232
     11 C         121.9618  152.3420  147.7253 C.3     1  UNL111     -0.0213
     12 C         122.4543  153.1273  144.7041 C.3     1  UNL111     -0.0364
     13 C         118.0769  155.0732  146.6407 C.3     1  UNL111      0.0611
     14 C         120.7496  151.7146  147.0953 C.ar    1  UNL111     -0.0425
     15 C         120.1708  154.9660  148.0480 C.2     1  UNL111     -0.0867
     16 C         118.7238  152.0708  145.8144 C.ar    1  UNL111      0.1050
     17 C         118.8474  155.1522  147.9344 C.2     1  UNL111     -0.0662
     18 C         124.5229  153.1524  146.1055 C.3     1  UNL111     -0.0442
     19 C         120.2964  150.4267  147.3942 C.ar    1  UNL111     -0.0573
     20 C         118.2707  150.8044  146.0960 C.ar    1  UNL111      0.0917
     21 C         119.0679  149.9670  146.8756 C.ar    1  UNL111     -0.0140
     22 C         115.7638  155.0131  146.0916 C.3     1  UNL111      0.0016
     23 H         116.6179  151.1350  145.2550 H       1  UNL111      0.3393
     24 H         123.3244  154.7204  145.6602 H       1  UNL111      0.1328
     25 H         121.3630  155.5918  146.4525 H       1  UNL111      0.0720
     26 H         122.9080  154.2974  147.9248 H       1  UNL111      0.0854
     27 H         118.7433  154.9198  144.5933 H       1  UNL111      0.1419
     28 H         121.2398  154.7945  144.0935 H       1  UNL111      0.0544
     29 H         120.5627  153.2238  143.7002 H       1  UNL111      0.0544
     30 H         121.7513  152.4339  148.7991 H       1  UNL111      0.0615
     31 H         122.8194  151.6703  147.6289 H       1  UNL111      0.0615
     32 H         122.3830  152.0471  144.8656 H       1  UNL111      0.0738
     33 H         123.0992  153.3032  143.8360 H       1  UNL111      0.0738
     34 H         117.9642  156.1182  146.3180 H       1  UNL111      0.1236
     35 H         120.6367  155.1020  149.0225 H       1  UNL111      0.0812
     36 H         118.2689  155.4232  148.8172 H       1  UNL111      0.0911
     37 H         124.4421  152.0699  146.2225 H       1  UNL111      0.0667
     38 H         124.9640  153.6174  146.9905 H       1  UNL111      0.0667
     39 H         125.1195  153.3959  145.2220 H       1  UNL111      0.0667
     40 H         120.8633  149.7727  148.0541 H       1  UNL111      0.0939
     41 H         118.7138  148.9679  147.1208 H       1  UNL111      0.1139
     42 H         114.8262  154.5282  146.3760 H       1  UNL111      0.0826
     43 H         115.9856  154.7612  145.0507 H       1  UNL111      0.0826
     44 H         115.6400  156.0954  146.1955 H       1  UNL111      0.0826
@<TRIPOS>UNITY_ATOM_ATTR
4 1
charge 1
@<TRIPOS>BOND
     1     1     8    1
     2     1    16    1
     3     2    13    1
     4     2    22    1
     5     3    20    1
     6     4     7    1
     7     4    12    1
     8     4    18    1
     9     5     6    1
    10     5     8    1
    11     5     9    1
    12     5    10    1
    13     6     7    1
    14     6    15    1
    15     7    11    1
    16     8    13    1
    17     9    12    1
    18    10    14   ar
    19    10    16   ar
    20    11    14    1
    21    13    17    1
    22    14    19   ar
    23    15    17    2
    24    16    20   ar
    25    19    21   ar
    26    20    21   ar
    27     3    23    1
    28     4    24    1
    29     6    25    1
    30     7    26    1
    31     8    27    1
    32     9    28    1
    33     9    29    1
    34    11    30    1
    35    11    31    1
    36    12    32    1
    37    12    33    1
    38    13    34    1
    39    15    35    1
    40    17    36    1
    41    18    37    1
    42    18    38    1
    43    18    39    1
    44    19    40    1
    45    21    41    1
    46    22    42    1
    47    22    43    1
    48    22    44    1
@<TRIPOS>MOLECULE
5359421
 43 47 0 0 0
SMALL
GASTEIGER

@<TRIPOS>ATOM
      1 O         121.7843  153.6932  147.7672 O.3     1  UNL111     -0.5457
      2 O         121.9021  155.0038  145.3314 O.3     1  UNL111     -0.4416
      3 O         123.6013  151.5021  147.0898 O.3     1  UNL111     -0.5485
      4 N         116.7959  152.6268  146.8574 N.4     1  UNL111      0.4269
      5 C         119.4560  153.7725  147.1059 C.3     1  UNL111      0.0474
      6 C         118.4140  154.3530  146.1475 C.3     1  UNL111     -0.0179
      7 C         120.6881  154.6311  147.4654 C.3     1  UNL111      0.0840
      8 C         117.5616  153.1675  145.6241 C.3     1  UNL111     -0.0256
      9 C         118.7199  153.2262  148.3525 C.3     1  UNL111     -0.0273
     10 C         120.1989  152.6484  146.4829 C.ar    1  UNL111      0.0216
     11 C         119.0147  155.2324  145.0496 C.3     1  UNL111     -0.0398
     12 C         121.1366  155.6314  146.3617 C.3     1  UNL111      0.0437
     13 C         118.3837  152.0518  144.9011 C.3     1  UNL111     -0.0225
     14 C         119.9419  156.2871  145.6693 C.3     1  UNL111     -0.0235
     15 C         117.6740  152.1647  148.0018 C.3     1  UNL111     -0.0369
     16 C         119.7252  151.7757  145.5225 C.ar    1  UNL111     -0.0430
     17 C         121.4849  152.6015  146.9817 C.ar    1  UNL111      0.1044
     18 C         115.7427  151.6035  146.5180 C.3     1  UNL111     -0.0445
     19 C         120.5883  150.7536  145.1213 C.ar    1  UNL111     -0.0573
     20 C         122.3348  151.5894  146.6094 C.ar    1  UNL111      0.0916
     21 C         121.8813  150.6499  145.6820 C.ar    1  UNL111     -0.0140
     22 H         122.6906  154.6109  145.7508 H       1  UNL111      0.2393
     23 H         123.7219  152.2330  147.7237 H       1  UNL111      0.3393
     24 H         116.2618  153.4285  147.2193 H       1  UNL111      0.1324
     25 H         117.7558  155.0231  146.7218 H       1  UNL111      0.0619
     26 H         120.4798  155.2055  148.3772 H       1  UNL111      0.1393
     27 H         116.7806  153.5385  144.9495 H       1  UNL111      0.0835
     28 H         118.2245  154.0597  148.8682 H       1  UNL111      0.0541
     29 H         119.4209  152.7955  149.0793 H       1  UNL111      0.0541
     30 H         118.2069  155.7374  144.5065 H       1  UNL111      0.0396
     31 H         119.5594  154.6355  144.3099 H       1  UNL111      0.0396
     32 H         121.7821  156.3966  146.8070 H       1  UNL111      0.1114
     33 H         118.5710  152.3928  143.8746 H       1  UNL111      0.0613
     34 H         117.8126  151.1222  144.8238 H       1  UNL111      0.0613
     35 H         119.3850  156.9054  146.3831 H       1  UNL111      0.0481
     36 H         120.2967  156.9459  144.8676 H       1  UNL111      0.0481
     37 H         118.1266  151.2101  147.7154 H       1  UNL111      0.0738
     38 H         117.0152  151.9876  148.8592 H       1  UNL111      0.0738
     39 H         116.2274  150.6587  146.2634 H       1  UNL111      0.0667
     40 H         115.1510  151.9858  145.6826 H       1  UNL111      0.0667
     41 H         115.1059  151.4790  147.3981 H       1  UNL111      0.0667
     42 H         120.2908  150.0387  144.3562 H       1  UNL111      0.0939
     43 H         122.5488  149.8535  145.3586 H       1  UNL111      0.1139
@<TRIPOS>UNITY_ATOM_ATTR
4 1
charge 1
@<TRIPOS>BOND
     1     1     7    1
     2     1    17    1
     3     2    12    1
     4     3    20    1
     5     4     8    1
     6     4    15    1
     7     4    18    1
     8     5     6    1
     9     5     7    1
    10     5     9    1
    11     5    10    1
    12     6     8    1
    13     6    11    1
    14     7    12    1
    15     8    13    1
    16     9    15    1
    17    10    16   ar
    18    10    17   ar
    19    11    14    1
    20    12    14    1
    21    13    16    1
    22    16    19   ar
    23    17    20   ar
    24    19    21   ar
    25    20    21   ar
    26     2    22    1
    27     3    23    1
    28     4    24    1
    29     6    25    1
    30     7    26    1
    31     8    27    1
    32     9    28    1
    33     9    29    1
    34    11    30    1
    35    11    31    1
    36    12    32    1
    37    13    33    1
    38    13    34    1
    39    14    35    1
    40    14    36    1
    41    15    37    1
    42    15    38    1
    43    18    39    1
    44    18    40    1
    45    18    41    1
    46    19    42    1
    47    21    43    1
@<TRIPOS>MOLECULE
53327325
 65 69 0 0 0
SMALL
GASTEIGER

@<TRIPOS>ATOM
      1 O         120.1438  154.3304  145.2102 O.3     1  UNL111     -0.5437
      2 O         119.3155  155.5923  147.4169 O.3     1  UNL111     -0.4346
      3 O         118.1177  152.2622  144.8956 O.3     1  UNL111     -0.5485
      4 O         116.7740  155.3598  145.8633 O.3     1  UNL111     -0.4503
      5 O         115.3004  152.8217  146.0452 O.3     1  UNL111     -0.4505
      6 O         114.4427  150.3977  147.5486 O.3     1  UNL111     -0.4625
      7 N         124.9813  152.6657  146.1195 N.4     1  UNL111      0.4275
      8 C         122.3787  153.9602  146.0606 C.3     1  UNL111      0.0534
      9 C         123.2359  153.9699  147.3331 C.3     1  UNL111     -0.0025
     10 C         124.0354  152.6282  147.3457 C.3     1  UNL111     -0.0206
     11 C         121.2326  154.9944  145.9403 C.3     1  UNL111      0.0914
     12 C         123.2879  153.9550  144.8129 C.3     1  UNL111     -0.0258
     13 C         121.5340  152.7299  146.0533 C.ar    1  UNL111      0.0232
     14 C         123.1374  151.3519  147.3608 C.3     1  UNL111     -0.0213
     15 C         124.2706  152.7861  144.7897 C.3     1  UNL111     -0.0364
     16 C         120.7371  155.6038  147.2910 C.3     1  UNL111      0.0643
     17 C         121.8673  151.4892  146.5688 C.ar    1  UNL111     -0.0425
     18 C         122.4202  154.2244  148.5709 C.2     1  UNL111     -0.0866
     19 C         120.2952  153.0073  145.5218 C.ar    1  UNL111      0.1050
     20 C         121.2930  154.9514  148.5320 C.2     1  UNL111     -0.0658
     21 C         126.0058  151.5609  146.1060 C.3     1  UNL111     -0.0442
     22 C         120.9281  150.4648  146.4214 C.ar    1  UNL111     -0.0573
     23 C         119.3582  152.0127  145.3860 C.ar    1  UNL111      0.0917
     24 C         119.6845  150.7241  145.8089 C.ar    1  UNL111     -0.0140
     25 C         118.6753  156.6346  146.6704 C.3     1  UNL111      0.0302
     26 C         117.1605  156.4468  146.7161 C.3     1  UNL111      0.0265
     27 C         115.3446  155.2110  145.8561 C.3     1  UNL111      0.0258
     28 C         114.9612  153.9013  145.1736 C.3     1  UNL111      0.0258
     29 C         114.9529  151.5510  145.4865 C.3     1  UNL111      0.0254
     30 C         115.3703  150.4489  146.4580 C.3     1  UNL111      0.0227
     31 C         114.8555  149.4734  148.5445 C.3     1  UNL111     -0.0027
     32 H         117.9292  153.2096  145.0733 H       1  UNL111      0.3393
     33 H         125.5370  153.5257  146.2246 H       1  UNL111      0.1328
     34 H         123.9595  154.7965  147.2803 H       1  UNL111      0.0720
     35 H         124.7063  152.6054  148.2136 H       1  UNL111      0.0854
     36 H         121.5503  155.8325  145.3062 H       1  UNL111      0.1419
     37 H         123.8538  154.8957  144.7846 H       1  UNL111      0.0544
     38 H         122.6960  153.9274  143.8887 H       1  UNL111      0.0544
     39 H         122.8443  151.1697  148.4032 H       1  UNL111      0.0615
     40 H         123.6874  150.4668  147.0291 H       1  UNL111      0.0615
     41 H         123.7826  151.8297  144.5777 H       1  UNL111      0.0738
     42 H         125.0401  152.9558  144.0285 H       1  UNL111      0.0738
     43 H         121.0833  156.6460  147.3427 H       1  UNL111      0.1242
     44 H         122.7640  153.8424  149.5305 H       1  UNL111      0.0812
     45 H         120.7420  155.1336  149.4541 H       1  UNL111      0.0912
     46 H         125.5176  150.6188  145.8486 H       1  UNL111      0.0667
     47 H         126.4696  151.5126  147.0942 H       1  UNL111      0.0667
     48 H         126.7584  151.8166  145.3550 H       1  UNL111      0.0667
     49 H         121.1226  149.4671  146.8098 H       1  UNL111      0.0939
     50 H         118.9484  149.9293  145.7156 H       1  UNL111      0.1139
     51 H         119.0210  156.6269  145.6317 H       1  UNL111      0.1006
     52 H         118.9364  157.5936  147.1310 H       1  UNL111      0.1006
     53 H         116.8401  156.2290  147.7412 H       1  UNL111      0.0998
     54 H         116.6718  157.3616  146.3628 H       1  UNL111      0.0998
     55 H         114.9144  156.0555  145.3072 H       1  UNL111      0.0997
     56 H         114.9700  155.2134  146.8865 H       1  UNL111      0.0997
     57 H         113.8822  153.8851  144.9863 H       1  UNL111      0.0997
     58 H         115.5047  153.7886  144.2292 H       1  UNL111      0.0997
     59 H         115.4825  151.4233  144.5365 H       1  UNL111      0.0997
     60 H         113.8716  151.5188  145.3125 H       1  UNL111      0.0997
     61 H         115.3552  149.4810  145.9457 H       1  UNL111      0.0991
     62 H         116.3763  150.6465  146.8451 H       1  UNL111      0.0991
     63 H         114.1057  149.4657  149.3400 H       1  UNL111      0.0817
     64 H         115.8155  149.7765  148.9738 H       1  UNL111      0.0817
     65 H         114.9318  148.4658  148.1249 H       1  UNL111      0.0817
@<TRIPOS>UNITY_ATOM_ATTR
7 1
charge 1
@<TRIPOS>BOND
     1     1    11    1
     2     1    19    1
     3     2    16    1
     4     2    25    1
     5     3    23    1
     6     4    26    1
     7     4    27    1
     8     5    28    1
     9     5    29    1
    10     6    30    1
    11     6    31    1
    12     7    10    1
    13     7    15    1
    14     7    21    1
    15     8     9    1
    16     8    11    1
    17     8    12    1
    18     8    13    1
    19     9    10    1
    20     9    18    1
    21    10    14    1
    22    11    16    1
    23    12    15    1
    24    13    17   ar
    25    13    19   ar
    26    14    17    1
    27    16    20    1
    28    17    22   ar
    29    18    20    2
    30    19    23   ar
    31    22    24   ar
    32    23    24   ar
    33    25    26    1
    34    27    28    1
    35    29    30    1
    36     3    32    1
    37     7    33    1
    38     9    34    1
    39    10    35    1
    40    11    36    1
    41    12    37    1
    42    12    38    1
    43    14    39    1
    44    14    40    1
    45    15    41    1
    46    15    42    1
    47    16    43    1
    48    18    44    1
    49    20    45    1
    50    21    46    1
    51    21    47    1
    52    21    48    1
    53    22    49    1
    54    24    50    1
    55    25    51    1
    56    25    52    1
    57    26    53    1
    58    26    54    1
    59    27    55    1
    60    27    56    1
    61    28    57    1
    62    28    58    1
    63    29    59    1
    64    29    60    1
    65    30    61    1
    66    30    62    1
    67    31    63    1
    68    31    64    1
    69    31    65    1
@<TRIPOS>MOLECULE
163285318
 60 65 0 0 0
SMALL
GASTEIGER

@<TRIPOS>ATOM
      1 O         119.3095  154.3901  145.7365 O.2     1  UNL111     -0.5434
      2 O         121.0515  153.5865  147.7143 O.3     1  UNL111     -0.3935
      3 O         118.4084  157.1067  146.1579 O.2     1  UNL111     -0.5485
      4 O         122.6530  152.4381  146.4518 O.3     1  UNL111     -0.3865
      5 O         122.7448  155.8826  147.7439 O.3     1  UNL111     -0.4257
      6 O         124.0444  155.5021  145.3720 O.3     1  UNL111     -0.4316
      7 O         125.9592  153.3736  145.0789 O.3     1  UNL111     -0.4315
      8 O         122.9843  150.3650  144.6646 O.co2   1  UNL111     -0.5546
      9 O         125.2277  150.7998  144.8514 O.co2   1  UNL111     -0.5546
     10 N         115.5915  150.7295  145.4484 N.4     1  UNL111      0.4275
     11 C         117.9143  152.4043  145.9135 C.3     1  UNL111      0.0537
     12 C         117.4996  151.3352  146.9394 C.3     1  UNL111     -0.0025
     13 C         119.3674  152.9365  145.9759 C.3     1  UNL111      0.0935
     14 C         115.9456  151.2288  146.8690 C.3     1  UNL111     -0.0206
     15 C         117.5277  151.9694  144.4867 C.3     1  UNL111     -0.0258
     16 C         117.2065  153.6745  146.2618 C.3     1  UNL111      0.0233
     17 C         115.2059  152.5557  147.2298 C.3     1  UNL111     -0.0213
     18 C         116.0453  151.6489  144.3375 C.3     1  UNL111     -0.0364
     19 C         120.1132  152.5879  147.2985 C.3     1  UNL111      0.0768
     20 C         115.9393  153.7995  146.8079 C.3     1  UNL111     -0.0425
     21 C         118.0327  151.6463  148.3181 C.2     1  UNL111     -0.0864
     22 C         118.0424  154.7512  146.0906 C.3     1  UNL111      0.1050
     23 C         119.2151  152.2654  148.4694 C.2     1  UNL111     -0.0634
     24 C         114.1538  150.3205  145.2853 C.3     1  UNL111     -0.0442
     25 C         115.4774  155.0942  147.0670 C.3     1  UNL111     -0.0573
     26 C         117.5996  156.0294  146.3342 C.3     1  UNL111      0.0917
     27 C         116.3016  156.2083  146.8082 C.3     1  UNL111     -0.0140
     28 C         122.1402  153.7131  146.7789 C.3     1  UNL111      0.1188
     29 C         123.2419  154.5651  147.4353 C.3     1  UNL111      0.0885
     30 C         124.4402  154.6679  146.4820 C.3     1  UNL111      0.0765
     31 C         124.8804  153.2642  146.0094 C.3     1  UNL111      0.0783
     32 C         123.6750  152.5147  145.4318 C.3     1  UNL111      0.1059
     33 C         123.9965  151.0780  144.9485 C.2     1  UNL111      0.0691
     34 H         119.2771  156.7573  145.8769 H       1  UNL111      0.3393
     35 H         121.9009  155.7235  148.2111 H       1  UNL111      0.2441
     36 H         123.7499  156.3364  145.7843 H       1  UNL111      0.2418
     37 H         126.1092  152.4392  144.7861 H       1  UNL111      0.2419
     38 H         116.1283  149.8586  145.3226 H       1  UNL111      0.1328
     39 H         117.9249  150.3623  146.6538 H       1  UNL111      0.0720
     40 H         119.9614  152.5290  145.1472 H       1  UNL111      0.1422
     41 H         115.5989  150.4319  147.5387 H       1  UNL111      0.0854
     42 H         118.1114  151.0790  144.2176 H       1  UNL111      0.0544
     43 H         117.7900  152.7418  143.7519 H       1  UNL111      0.0544
     44 H         115.1204  152.5932  148.3242 H       1  UNL111      0.0615
     45 H         114.1869  152.5747  146.8339 H       1  UNL111      0.0615
     46 H         115.4159  152.5443  144.3609 H       1  UNL111      0.0738
     47 H         115.8634  151.1266  143.3918 H       1  UNL111      0.0738
     48 H         120.6456  151.6396  147.1396 H       1  UNL111      0.1271
     49 H         117.4780  151.3404  149.2017 H       1  UNL111      0.0812
     50 H         119.6170  152.4490  149.4631 H       1  UNL111      0.0915
     51 H         113.5242  151.2127  145.2659 H       1  UNL111      0.0667
     52 H         113.8865  149.6658  146.1184 H       1  UNL111      0.0667
     53 H         114.0666  149.7750  144.3418 H       1  UNL111      0.0667
     54 H         114.4972  155.2599  147.5091 H       1  UNL111      0.0939
     55 H         115.9464  157.2129  147.0254 H       1  UNL111      0.1139
     56 H         121.7606  154.2182  145.8837 H       1  UNL111      0.1708
     57 H         123.5578  154.1037  148.3784 H       1  UNL111      0.1333
     58 H         125.2773  155.1888  146.9602 H       1  UNL111      0.1245
     59 H         125.2610  152.7230  146.8857 H       1  UNL111      0.1247
     60 H         123.2771  153.0342  144.5495 H       1  UNL111      0.1358
@<TRIPOS>UNITY_ATOM_ATTR
8 1
charge -1
10 1
charge 1
@<TRIPOS>BOND
     1     1    13    1
     2     1    22    1
     3     2    19    1
     4     2    28    1
     5     3    26    1
     6     4    28    1
     7     4    32    1
     8     5    29    1
     9     6    30    1
    10     7    31    1
    11     8    33   ar
    12     9    33   ar
    13    10    14    1
    14    10    18    1
    15    10    24    1
    16    11    12    1
    17    11    13    1
    18    11    15    1
    19    11    16    1
    20    12    14    1
    21    12    21    1
    22    13    19    1
    23    14    17    1
    24    15    18    1
    25    16    20   ar
    26    16    22   ar
    27    17    20    1
    28    19    23    1
    29    20    25   ar
    30    21    23    2
    31    22    26   ar
    32    25    27   ar
    33    26    27   ar
    34    28    29    1
    35    29    30    1
    36    30    31    1
    37    31    32    1
    38    32    33    1
    39     3    34    1
    40     5    35    1
    41     6    36    1
    42     7    37    1
    43    10    38    1
    44    12    39    1
    45    13    40    1
    46    14    41    1
    47    15    42    1
    48    15    43    1
    49    17    44    1
    50    17    45    1
    51    18    46    1
    52    18    47    1
    53    19    48    1
    54    21    49    1
    55    23    50    1
    56    24    51    1
    57    24    52    1
    58    24    53    1
    59    25    54    1
    60    27    55    1
    61    28    56    1
    62    29    57    1
    63    30    58    1
    64    31    59    1
    65    32    60    1
@<TRIPOS>MOLECULE
163285670
 64 69 0 0 0
SMALL
GASTEIGER

@<TRIPOS>ATOM
      1 O         120.7212  154.3082  145.0738 O.2     1  UNL111     -0.5434
      2 O         121.9943  156.5797  145.0906 O.3     1  UNL111     -0.4348
      3 O         118.6599  154.9067  146.9752 O.2     1  UNL111     -0.5157
      4 O         117.4480  152.9271  146.4814 O.3     1  UNL111     -0.3489
      5 O         116.2306  156.3261  147.2867 O.3     1  UNL111     -0.4215
      6 O         113.9586  155.1288  146.0468 O.3     1  UNL111     -0.4304
      7 O         113.7903  152.3298  146.3493 O.3     1  UNL111     -0.4273
      8 O         115.4088  149.9914  146.1181 O.3     1  UNL111     -0.5218
      9 O         117.3364  150.6277  145.0604 O.2     1  UNL111     -0.3227
     10 N         124.1692  150.6818  146.4788 N.4     1  UNL111      0.4275
     11 C         122.7179  153.0138  145.5255 C.3     1  UNL111      0.0533
     12 C         124.2011  153.1051  145.9073 C.3     1  UNL111     -0.0026
     13 C         124.4272  152.0895  147.0694 C.3     1  UNL111     -0.0206
     14 C         122.1217  154.1410  144.6535 C.3     1  UNL111      0.0902
     15 C         122.4138  151.6091  144.9588 C.3     1  UNL111     -0.0259
     16 C         121.8720  153.2392  146.7333 C.3     1  UNL111      0.0238
     17 C         123.5604  152.3710  148.3370 C.3     1  UNL111     -0.0213
     18 C         122.7737  150.4814  145.9256 C.3     1  UNL111     -0.0364
     19 C         122.1840  152.8973  148.0365 C.3     1  UNL111     -0.0425
     20 C         122.8637  155.5109  144.7282 C.3     1  UNL111      0.0605
     21 C         124.6448  154.5093  146.2066 C.2     1  UNL111     -0.0869
     22 C         120.7233  153.9209  146.3925 C.3     1  UNL111      0.1094
     23 C         124.0353  155.5744  145.6655 C.2     1  UNL111     -0.0672
     24 C         121.2297  153.1865  149.0146 C.3     1  UNL111     -0.0567
     25 C         124.5783  149.5542  147.3901 C.3     1  UNL111     -0.0442
     26 C         119.7600  154.1917  147.3391 C.3     1  UNL111      0.1106
     27 C         120.0174  153.8203  148.6646 C.3     1  UNL111     -0.0097
     28 C         117.4302  154.1796  147.1622 C.3     1  UNL111      0.1551
     29 C         116.3266  155.0785  146.5814 C.3     1  UNL111      0.1004
     30 C         114.9880  154.3624  146.6910 C.3     1  UNL111      0.0831
     31 C         115.0365  152.9702  146.0568 C.3     1  UNL111      0.0981
     32 C         116.2286  152.1771  146.6084 C.3     1  UNL111      0.1790
     33 C         116.4044  150.8728  145.8199 C.2     1  UNL111      0.2630
     34 C         115.4464  148.7738  145.3740 C.3     1  UNL111      0.0473
     35 H         121.0816  156.2324  145.0643 H       1  UNL111      0.2424
     36 H         117.1085  156.7498  147.2122 H       1  UNL111      0.2455
     37 H         114.0554  156.0398  146.3931 H       1  UNL111      0.2420
     38 H         113.0966  152.9706  146.0871 H       1  UNL111      0.2426
     39 H         124.8053  150.5990  145.6736 H       1  UNL111      0.1328
     40 H         124.8156  152.7848  145.0528 H       1  UNL111      0.0720
     41 H         125.4867  152.0819  147.3543 H       1  UNL111      0.0854
     42 H         122.0968  153.8305  143.6010 H       1  UNL111      0.1417
     43 H         122.9805  151.4731  144.0279 H       1  UNL111      0.0544
     44 H         121.3548  151.5078  144.6881 H       1  UNL111      0.0544
     45 H         124.0760  153.1445  148.9216 H       1  UNL111      0.0615
     46 H         123.4872  151.4879  148.9781 H       1  UNL111      0.0615
     47 H         122.0817  150.4143  146.7708 H       1  UNL111      0.0738
     48 H         122.7723  149.5193  145.4016 H       1  UNL111      0.0738
     49 H         123.2423  155.7453  143.7259 H       1  UNL111      0.1221
     50 H         125.5162  154.6729  146.8384 H       1  UNL111      0.0812
     51 H         124.4126  156.5735  145.8825 H       1  UNL111      0.0909
     52 H         121.4230  152.9658  150.0631 H       1  UNL111      0.0940
     53 H         123.8587  149.4714  148.2070 H       1  UNL111      0.0667
     54 H         125.5831  149.7651  147.7647 H       1  UNL111      0.0667
     55 H         124.5892  148.6358  146.7969 H       1  UNL111      0.0667
     56 H         119.3091  154.0707  149.4508 H       1  UNL111      0.1146
     57 H         117.2646  154.0299  148.2376 H       1  UNL111      0.1981
     58 H         116.5353  155.3252  145.5329 H       1  UNL111      0.1391
     59 H         114.6812  154.2872  147.7424 H       1  UNL111      0.1259
     60 H         115.1048  153.0606  144.9654 H       1  UNL111      0.1297
     61 H         116.0928  151.9070  147.6632 H       1  UNL111      0.1688
     62 H         114.5639  148.1859  145.6413 H       1  UNL111      0.1104
     63 H         116.3402  148.1980  145.6321 H       1  UNL111      0.1104
     64 H         115.4124  148.9777  144.2991 H       1  UNL111      0.1104
@<TRIPOS>UNITY_ATOM_ATTR
10 1
charge 1
@<TRIPOS>BOND
     1     1    14    1
     2     1    22    1
     3     2    20    1
     4     3    26    1
     5     3    28    1
     6     4    28    1
     7     4    32    1
     8     5    29    1
     9     6    30    1
    10     7    31    1
    11     8    33    1
    12     8    34    1
    13     9    33    2
    14    10    13    1
    15    10    18    1
    16    10    25    1
    17    11    12    1
    18    11    14    1
    19    11    15    1
    20    11    16    1
    21    12    13    1
    22    12    21    1
    23    13    17    1
    24    14    20    1
    25    15    18    1
    26    16    19   ar
    27    16    22   ar
    28    17    19    1
    29    19    24   ar
    30    20    23    1
    31    21    23    2
    32    22    26   ar
    33    24    27   ar
    34    26    27   ar
    35    28    29    1
    36    29    30    1
    37    30    31    1
    38    31    32    1
    39    32    33    1
    40     2    35    1
    41     5    36    1
    42     6    37    1
    43     7    38    1
    44    10    39    1
    45    12    40    1
    46    13    41    1
    47    14    42    1
    48    15    43    1
    49    15    44    1
    50    17    45    1
    51    17    46    1
    52    18    47    1
    53    18    48    1
    54    20    49    1
    55    21    50    1
    56    23    51    1
    57    24    52    1
    58    25    53    1
    59    25    54    1
    60    25    55    1
    61    27    56    1
    62    28    57    1
    63    29    58    1
    64    30    59    1
    65    31    60    1
    66    32    61    1
    67    34    62    1
    68    34    63    1
    69    34    64    1
@<TRIPOS>MOLECULE
5362446
 44 48 0 0 0
SMALL
GASTEIGER

@<TRIPOS>ATOM
      1 O         121.9193  153.7087  147.7241 O.3     1  UNL111     -0.5439
      2 O         122.7305  155.6066  146.0761 O.3     1  UNL111     -0.4348
      3 O         123.6582  151.4167  147.2649 O.3     1  UNL111     -0.5485
      4 N         116.8291  152.7917  146.7422 N.4     1  UNL111      0.4208
      5 C         119.5929  153.8414  147.0153 C.3     1  UNL111      0.0533
      6 C         118.6779  154.3704  145.9039 C.3     1  UNL111     -0.0027
      7 C         117.7309  153.1906  145.4936 C.3     1  UNL111     -0.0249
      8 C         118.7570  153.4764  148.2582 C.3     1  UNL111     -0.0260
      9 C         120.8482  154.6690  147.3874 C.3     1  UNL111      0.0902
     10 C         120.3034  152.6232  146.5262 C.ar    1  UNL111      0.0232
     11 C         117.6703  152.4393  147.9764 C.3     1  UNL111     -0.0408
     12 C         118.5304  151.9745  144.9113 C.3     1  UNL111     -0.0215
     13 C         119.8219  151.6882  145.6262 C.ar    1  UNL111     -0.0425
     14 C         119.4571  154.9707  144.7607 C.2     1  UNL111     -0.0868
     15 C         121.3264  155.6650  146.2893 C.3     1  UNL111      0.0605
     16 C         121.5825  152.5760  147.0307 C.ar    1  UNL111      0.1050
     17 C         115.9398  151.5793  146.4071 C.3     1  UNL111     -0.0486
     18 C         115.8501  153.9335  147.0777 C.3     1  UNL111     -0.0486
     19 C         120.6556  155.5431  144.9513 C.2     1  UNL111     -0.0672
     20 C         120.6501  150.6023  145.3290 C.ar    1  UNL111     -0.0573
     21 C         122.4007  151.5051  146.7607 C.ar    1  UNL111      0.0917
     22 C         121.9277  150.5007  145.9171 C.ar    1  UNL111     -0.0140
     23 H         123.0382  154.7330  146.3789 H       1  UNL111      0.2424
     24 H         123.8015  152.1946  147.8349 H       1  UNL111      0.3393
     25 H         118.0755  155.2014  146.2879 H       1  UNL111      0.0720
     26 H         117.0156  153.5261  144.7317 H       1  UNL111      0.0855
     27 H         118.2997  154.3875  148.6641 H       1  UNL111      0.0545
     28 H         119.3974  153.0847  149.0599 H       1  UNL111      0.0545
     29 H         120.6673  155.2478  148.3024 H       1  UNL111      0.1417
     30 H         118.1082  151.4498  147.8071 H       1  UNL111      0.0739
     31 H         116.9858  152.3533  148.8286 H       1  UNL111      0.0739
     32 H         118.7973  152.2306  143.8766 H       1  UNL111      0.0616
     33 H         117.9262  151.0676  144.8442 H       1  UNL111      0.0616
     34 H         119.0201  154.9882  143.7637 H       1  UNL111      0.0812
     35 H         121.1134  156.6815  146.6430 H       1  UNL111      0.1221
     36 H         116.5584  150.6816  146.3444 H       1  UNL111      0.0668
     37 H         115.4313  151.7793  145.4600 H       1  UNL111      0.0668
     38 H         115.2126  151.4494  147.2149 H       1  UNL111      0.0668
     39 H         116.4028  154.8019  147.4365 H       1  UNL111      0.0668
     40 H         115.1733  153.5898  147.8662 H       1  UNL111      0.0668
     41 H         115.2878  154.1785  146.1722 H       1  UNL111      0.0668
     42 H         121.1710  156.0051  144.1098 H       1  UNL111      0.0909
     43 H         120.3395  149.8399  144.6168 H       1  UNL111      0.0939
     44 H         122.5711  149.6568  145.6764 H       1  UNL111      0.1139
@<TRIPOS>UNITY_ATOM_ATTR
4 1
charge 1
@<TRIPOS>BOND
     1     1     9    1
     2     1    16    1
     3     2    15    1
     4     3    21    1
     5     4     7    1
     6     4    11    1
     7     4    17    1
     8     4    18    1
     9     5     6    1
    10     5     8    1
    11     5     9    1
    12     5    10    1
    13     6     7    1
    14     6    14    1
    15     7    12    1
    16     8    11    1
    17     9    15    1
    18    10    13   ar
    19    10    16   ar
    20    12    13    1
    21    13    20   ar
    22    14    19    2
    23    15    19    1
    24    16    21   ar
    25    20    22   ar
    26    21    22   ar
    27     2    23    1
    28     3    24    1
    29     6    25    1
    30     7    26    1
    31     8    27    1
    32     8    28    1
    33     9    29    1
    34    11    30    1
    35    11    31    1
    36    12    32    1
    37    12    33    1
    38    14    34    1
    39    15    35    1
    40    17    36    1
    41    17    37    1
    42    17    38    1
    43    18    39    1
    44    18    40    1
    45    18    41    1
    46    19    42    1
    47    20    43    1
    48    22    44    1
@<TRIPOS>MOLECULE
57369974
 59 62 0 0 0
SMALL
GASTEIGER

@<TRIPOS>ATOM
      1 O         112.6197  149.4850  145.2598 O.2     1  UNL1111    -0.4112
      2 O         126.2902  148.7261  145.0972 O.2     1  UNL1111    -0.4112
      3 N         114.4981  153.6945  146.2938 N.pl3   1  UNL1111    -0.3251
      4 N         125.4018  153.1558  146.4817 N.pl3   1  UNL1111    -0.3251
      5 N         115.2111  154.5839  147.0225 N.pl3   1  UNL1111    -0.3216
      6 N         124.7647  154.1257  147.1781 N.pl3   1  UNL1111    -0.3216
      7 C         115.2767  150.2269  147.5795 C.3     1  UNL1111    -0.0311
      8 C         124.4971  149.8239  148.0229 C.3     1  UNL1111    -0.0311
      9 C         115.0921  151.7383  147.6965 C.3     1  UNL1111    -0.0144
     10 C         124.2643  151.2840  147.6420 C.3     1  UNL1111    -0.0144
     11 C         113.9678  149.5342  147.2445 C.3     1  UNL1111     0.0223
     12 C         124.6039  148.9426  146.7912 C.3     1  UNL1111     0.0223
     13 C         114.3412  152.3381  146.5216 C.2     1  UNL1111    -0.0151
     14 C         125.2355  151.7851  146.5882 C.2     1  UNL1111    -0.0151
     15 C         113.3514  150.1338  146.0045 C.2     1  UNL1111     0.1077
     16 C         125.6659  149.4655  145.8553 C.2     1  UNL1111     0.1077
     17 C         113.5676  151.5741  145.7308 C.2     1  UNL1111     0.0094
     18 C         125.8974  150.9280  145.7917 C.2     1  UNL1111     0.0094
     19 C         120.1452  157.0632  145.4312 C.3     1  UNL1111    -0.0115
     20 C         118.8438  156.4139  145.8402 C.3     1  UNL1111    -0.0705
     21 C         121.3693  156.2991  145.8779 C.3     1  UNL1111    -0.0705
     22 C         116.4196  155.1735  146.6178 C.3     1  UNL1111    -0.0093
     23 C         123.6379  154.8346  146.7307 C.3     1  UNL1111    -0.0093
     24 C         118.2436  155.4451  145.0272 C.3     1  UNL1111    -0.0725
     25 C         121.9283  155.3083  145.0623 C.3     1  UNL1111    -0.0725
     26 C         118.2267  156.7492  147.0511 C.3     1  UNL1111    -0.0725
     27 C         121.9515  156.5476  147.1265 C.3     1  UNL1111    -0.0725
     28 C         117.0450  154.8357  145.4130 C.3     1  UNL1111    -0.0530
     29 C         123.0505  154.5886  145.4851 C.3     1  UNL1111    -0.0530
     30 C         117.0276  156.1366  147.4316 C.3     1  UNL1111    -0.0530
     31 C         123.0745  155.8249  147.5439 C.3     1  UNL1111    -0.0530
     32 H         114.0128  154.0712  145.4773 H       1  UNL1111     0.2114
     33 H         126.0384  153.4745  145.7486 H       1  UNL1111     0.2114
     34 H         114.8442  154.8684  147.9279 H       1  UNL1111     0.2136
     35 H         125.1033  154.3481  148.1115 H       1  UNL1111     0.2136
     36 H         115.6835  149.8283  148.5157 H       1  UNL1111     0.0407
     37 H         116.0140  150.0137  146.7943 H       1  UNL1111     0.0407
     38 H         123.6828  149.4729  148.6667 H       1  UNL1111     0.0407
     39 H         125.4230  149.7472  148.6083 H       1  UNL1111     0.0407
     40 H         116.0895  152.1858  147.7830 H       1  UNL1111     0.0542
     41 H         114.5486  151.9768  148.6193 H       1  UNL1111     0.0542
     42 H         124.3521  151.8822  148.5571 H       1  UNL1111     0.0542
     43 H         123.2410  151.4120  147.2672 H       1  UNL1111     0.0542
     44 H         113.2501  149.6278  148.0667 H       1  UNL1111     0.0677
     45 H         114.1548  148.4702  147.0643 H       1  UNL1111     0.0677
     46 H         123.6531  148.9053  146.2488 H       1  UNL1111     0.0677
     47 H         124.8728  147.9251  147.0940 H       1  UNL1111     0.0677
     48 H         113.0326  151.9695  144.8760 H       1  UNL1111     0.1230
     49 H         126.6026  151.2544  145.0372 H       1  UNL1111     0.1230
     50 H         120.1870  158.0873  145.8259 H       1  UNL1111     0.0597
     51 H         120.1659  157.1881  144.3402 H       1  UNL1111     0.0597
     52 H         118.7054  155.1517  144.0875 H       1  UNL1111     0.0912
     53 H         121.4927  155.0829  144.0919 H       1  UNL1111     0.0912
     54 H         118.6746  157.4897  147.7094 H       1  UNL1111     0.0912
     55 H         121.5338  157.3041  147.7865 H       1  UNL1111     0.0912
     56 H         116.6075  154.0814  144.7649 H       1  UNL1111     0.1003
     57 H         123.4575  153.8208  144.8330 H       1  UNL1111     0.1003
     58 H         116.5722  156.4212  148.3763 H       1  UNL1111     0.1003
     59 H         123.5032  156.0422  148.5184 H       1  UNL1111     0.1003
@<TRIPOS>BOND
     1     1    15    2
     2     2    16    2
     3     3     5    1
     4     3    13    1
     5     4     6    1
     6     4    14    1
     7     5    22    1
     8     6    23    1
     9     7     9    1
    10     7    11    1
    11     8    10    1
    12     8    12    1
    13     9    13    1
    14    10    14    1
    15    11    15    1
    16    12    16    1
    17    13    17    2
    18    14    18    2
    19    15    17    1
    20    16    18    1
    21    19    20    1
    22    19    21    1
    23    20    24   ar
    24    20    26   ar
    25    21    25   ar
    26    21    27   ar
    27    22    28   ar
    28    22    30   ar
    29    23    29   ar
    30    23    31   ar
    31    24    28   ar
    32    25    29   ar
    33    26    30   ar
    34    27    31   ar
    35     3    32    1
    36     4    33    1
    37     5    34    1
    38     6    35    1
    39     7    36    1
    40     7    37    1
    41     8    38    1
    42     8    39    1
    43     9    40    1
    44     9    41    1
    45    10    42    1
    46    10    43    1
    47    11    44    1
    48    11    45    1
    49    12    46    1
    50    12    47    1
    51    17    48    1
    52    18    49    1
    53    19    50    1
    54    19    51    1
    55    24    52    1
    56    25    53    1
    57    26    54    1
    58    27    55    1
    59    28    56    1
    60    29    57    1
    61    30    58    1
    62    31    59    1
@<TRIPOS>MOLECULE
118701622
 43 47 0 0 0
SMALL
GASTEIGER

@<TRIPOS>ATOM
      1 O         121.7842  153.6932  147.7675 O.3     1  UNL111     -0.5457
      2 O         121.9037  155.0044  145.3330 O.3     1  UNL111     -0.4416
      3 O         123.6026  151.5040  147.0883 O.3     1  UNL111     -0.5485
      4 N         116.7952  152.6277  146.8574 N.4     1  UNL111      0.4269
      5 C         119.4559  153.7719  147.1060 C.3     1  UNL111      0.0474
      6 C         118.4145  154.3522  146.1470 C.3     1  UNL111     -0.0179
      7 C         120.6879  154.6308  147.4657 C.3     1  UNL111      0.0840
      8 C         117.5617  153.1668  145.6240 C.3     1  UNL111     -0.0256
      9 C         118.7195  153.2258  148.3524 C.3     1  UNL111     -0.0273
     10 C         120.1991  152.6479  146.4833 C.ar    1  UNL111      0.0216
     11 C         119.0159  155.2306  145.0487 C.3     1  UNL111     -0.0398
     12 C         121.1365  155.6314  146.3623 C.3     1  UNL111      0.0437
     13 C         118.3835  152.0500  144.9022 C.3     1  UNL111     -0.0225
     14 C         119.9421  156.2861  145.6684 C.3     1  UNL111     -0.0235
     15 C         117.6730  152.1648  148.0017 C.3     1  UNL111     -0.0369
     16 C         119.7255  151.7750  145.5230 C.ar    1  UNL111     -0.0430
     17 C         121.4852  152.6015  146.9817 C.ar    1  UNL111      0.1044
     18 C         115.7403  151.6061  146.5184 C.3     1  UNL111     -0.0445
     19 C         120.5892  150.7535  145.1213 C.ar    1  UNL111     -0.0573
     20 C         122.3357  151.5903  146.6087 C.ar    1  UNL111      0.0916
     21 C         121.8826  150.6507  145.6812 C.ar    1  UNL111     -0.0140
     22 H         122.6920  154.6121  145.7534 H       1  UNL111      0.2393
     23 H         123.7230  152.2348  147.7223 H       1  UNL111      0.3393
     24 H         116.2624  153.4303  147.2191 H       1  UNL111      0.1324
     25 H         117.7564  155.0229  146.7207 H       1  UNL111      0.0619
     26 H         120.4792  155.2050  148.3775 H       1  UNL111      0.1393
     27 H         116.7812  153.5377  144.9487 H       1  UNL111      0.0835
     28 H         118.2245  154.0594  148.8682 H       1  UNL111      0.0541
     29 H         119.4203  152.7946  149.0792 H       1  UNL111      0.0541
     30 H         118.2085  155.7348  144.5042 H       1  UNL111      0.0396
     31 H         119.5616  154.6331  144.3102 H       1  UNL111      0.0396
     32 H         121.7809  156.3972  146.8082 H       1  UNL111      0.1114
     33 H         118.5700  152.3894  143.8750 H       1  UNL111      0.0613
     34 H         117.8125  151.1202  144.8269 H       1  UNL111      0.0613
     35 H         119.3843  156.9046  146.3813 H       1  UNL111      0.0481
     36 H         120.2973  156.9445  144.8666 H       1  UNL111      0.0481
     37 H         118.1250  151.2100  147.7151 H       1  UNL111      0.0738
     38 H         117.0141  151.9881  148.8591 H       1  UNL111      0.0738
     39 H         116.2232  150.6606  146.2635 H       1  UNL111      0.0667
     40 H         115.1488  151.9896  145.6835 H       1  UNL111      0.0667
     41 H         115.1036  151.4827  147.3989 H       1  UNL111      0.0667
     42 H         120.2919  150.0385  144.3562 H       1  UNL111      0.0939
     43 H         122.5507  149.8550  145.3572 H       1  UNL111      0.1139
@<TRIPOS>UNITY_ATOM_ATTR
4 1
charge 1
@<TRIPOS>BOND
     1     1     7    1
     2     1    17    1
     3     2    12    1
     4     3    20    1
     5     4     8    1
     6     4    15    1
     7     4    18    1
     8     5     6    1
     9     5     7    1
    10     5     9    1
    11     5    10    1
    12     6     8    1
    13     6    11    1
    14     7    12    1
    15     8    13    1
    16     9    15    1
    17    10    16   ar
    18    10    17   ar
    19    11    14    1
    20    12    14    1
    21    13    16    1
    22    16    19   ar
    23    17    20   ar
    24    19    21   ar
    25    20    21   ar
    26     2    22    1
    27     3    23    1
    28     4    24    1
    29     6    25    1
    30     7    26    1
    31     8    27    1
    32     9    28    1
    33     9    29    1
    34    11    30    1
    35    11    31    1
    36    12    32    1
    37    13    33    1
    38    13    34    1
    39    14    35    1
    40    14    36    1
    41    15    37    1
    42    15    38    1
    43    18    39    1
    44    18    40    1
    45    18    41    1
    46    19    42    1
    47    21    43    1
@<TRIPOS>MOLECULE
61063
 44 48 0 0 0
SMALL
GASTEIGER

@<TRIPOS>ATOM
      1 O         121.9151  153.9118  147.6868 O.3     1  UNL111     -0.5439
      2 O         122.4878  155.8518  145.9530 O.3     1  UNL111     -0.4348
      3 O         123.9141  151.8583  147.2163 O.3     1  UNL111     -0.5485
      4 N         116.6014  152.7937  146.6104 N.4     1  UNL111      0.4208
      5 C         119.5633  153.7908  147.0634 C.3     1  UNL111      0.0533
      6 C         118.6626  154.0403  145.8682 C.3     1  UNL111     -0.0027
      7 C         117.9030  152.6635  145.8863 C.3     1  UNL111     -0.0249
      8 C         118.5821  153.5835  148.3028 C.3     1  UNL111     -0.0260
      9 C         120.7520  154.7403  147.3170 C.3     1  UNL111      0.0902
     10 C         120.3940  152.5629  146.6415 C.ar    1  UNL111      0.0232
     11 C         116.9996  153.5829  147.9712 C.3     1  UNL111     -0.0408
     12 C         118.5955  151.5449  145.1067 C.3     1  UNL111     -0.0215
     13 C         120.0190  151.5249  145.7355 C.ar    1  UNL111     -0.0425
     14 C         119.4115  154.4865  144.6421 C.2     1  UNL111     -0.0868
     15 C         121.0888  155.6566  146.0978 C.3     1  UNL111      0.0605
     16 C         121.6858  152.7073  147.0798 C.ar    1  UNL111      0.1050
     17 C         115.9938  151.4322  146.9769 C.3     1  UNL111     -0.0486
     18 C         115.5693  153.5567  145.7964 C.3     1  UNL111     -0.0486
     19 C         120.5294  155.2224  144.7669 C.2     1  UNL111     -0.0672
     20 C         120.9784  150.5637  145.4226 C.ar    1  UNL111     -0.0573
     21 C         122.6303  151.7509  146.7814 C.ar    1  UNL111      0.0917
     22 C         122.2750  150.6698  145.9673 C.ar    1  UNL111     -0.0140
     23 H         122.9211  155.0060  146.1706 H       1  UNL111      0.2424
     24 H         123.9635  152.6482  147.7859 H       1  UNL111      0.3393
     25 H         117.9878  154.8787  146.0761 H       1  UNL111      0.0720
     26 H         118.2242  152.1120  146.7719 H       1  UNL111      0.0855
     27 H         118.7372  154.3866  149.0332 H       1  UNL111      0.0545
     28 H         118.8270  152.6467  148.8206 H       1  UNL111      0.0545
     29 H         120.5673  155.3902  148.1805 H       1  UNL111      0.1417
     30 H         116.4293  153.1289  148.7879 H       1  UNL111      0.0739
     31 H         116.6556  154.6140  147.8342 H       1  UNL111      0.0739
     32 H         118.6563  151.7693  144.0380 H       1  UNL111      0.0616
     33 H         118.1137  150.5715  145.2466 H       1  UNL111      0.0616
     34 H         119.0235  154.2622  143.6513 H       1  UNL111      0.0812
     35 H         120.6578  156.6465  146.2936 H       1  UNL111      0.1221
     36 H         116.6982  150.8867  147.6118 H       1  UNL111      0.0668
     37 H         115.7996  150.8855  146.0501 H       1  UNL111      0.0668
     38 H         115.0612  151.6113  147.5201 H       1  UNL111      0.0668
     39 H         115.9508  154.5505  145.5543 H       1  UNL111      0.0668
     40 H         114.6591  153.6459  146.3966 H       1  UNL111      0.0668
     41 H         115.3753  152.9930  144.8793 H       1  UNL111      0.0668
     42 H         121.0421  155.5857  143.8773 H       1  UNL111      0.0909
     43 H         120.7535  149.7411  144.7474 H       1  UNL111      0.0939
     44 H         123.0277  149.9241  145.7173 H       1  UNL111      0.1139
@<TRIPOS>UNITY_ATOM_ATTR
4 1
charge 1
@<TRIPOS>BOND
     1     1     9    1
     2     1    16    1
     3     2    15    1
     4     3    21    1
     5     4     7    1
     6     4    11    1
     7     4    17    1
     8     4    18    1
     9     5     6    1
    10     5     8    1
    11     5     9    1
    12     5    10    1
    13     6     7    1
    14     6    14    1
    15     7    12    1
    16     8    11    1
    17     9    15    1
    18    10    13   ar
    19    10    16   ar
    20    12    13    1
    21    13    20   ar
    22    14    19    2
    23    15    19    1
    24    16    21   ar
    25    20    22   ar
    26    21    22   ar
    27     2    23    1
    28     3    24    1
    29     6    25    1
    30     7    26    1
    31     8    27    1
    32     8    28    1
    33     9    29    1
    34    11    30    1
    35    11    31    1
    36    12    32    1
    37    12    33    1
    38    14    34    1
    39    15    35    1
    40    17    36    1
    41    17    37    1
    42    17    38    1
    43    18    39    1
    44    18    40    1
    45    18    41    1
    46    19    42    1
    47    20    43    1
    48    22    44    1
@<TRIPOS>MOLECULE
519207
 43 47 0 0 0
SMALL
GASTEIGER

@<TRIPOS>ATOM
      1 O         117.8337  152.7491  147.5512 O.3     1  UNL111     -0.5474
      2 O         116.3562  155.1785  146.9090 O.3     1  UNL111     -0.5485
      3 N         123.0071  152.9904  146.9250 N.4     1  UNL111      0.4270
      4 C         120.1727  152.3922  147.0218 C.3     1  UNL111      0.0469
      5 C         121.0848  151.7548  145.9700 C.3     1  UNL111     -0.0145
      6 C         122.1853  152.7957  145.6301 C.3     1  UNL111     -0.0245
      7 C         118.8238  151.6920  147.3107 C.3     1  UNL111      0.0782
      8 C         120.9642  152.6657  148.3180 C.3     1  UNL111     -0.0271
      9 C         119.6387  153.6708  146.4850 C.ar    1  UNL111      0.0219
     10 C         120.3265  151.2608  144.7256 C.3     1  UNL111     -0.0310
     11 C         121.6342  154.1549  145.0798 C.3     1  UNL111     -0.0223
     12 C         122.2075  153.5216  148.0930 C.3     1  UNL111     -0.0368
     13 C         120.2966  154.5532  145.6462 C.ar    1  UNL111     -0.0429
     14 C         118.3377  150.7811  146.1981 C.2     1  UNL111     -0.0626
     15 C         118.3282  153.8353  146.8742 C.ar    1  UNL111      0.1047
     16 C         119.0238  150.5951  145.0543 C.2     1  UNL111     -0.0957
     17 C         124.2865  153.7619  146.7264 C.3     1  UNL111     -0.0444
     18 C         119.6080  155.7138  145.2856 C.ar    1  UNL111     -0.0573
     19 C         117.6446  154.9762  146.5309 C.ar    1  UNL111      0.0918
     20 C         117.0235  150.0911  146.4457 C.3     1  UNL111     -0.0386
     21 C         118.2916  155.9321  145.7465 C.ar    1  UNL111     -0.0140
     22 H         116.0735  154.3770  147.3884 H       1  UNL111      0.3393
     23 H         123.3195  152.0488  147.1999 H       1  UNL111      0.1324
     24 H         121.5579  150.8670  146.4163 H       1  UNL111      0.0638
     25 H         122.8925  152.3696  144.9085 H       1  UNL111      0.0837
     26 H         118.8942  151.0956  148.2294 H       1  UNL111      0.1383
     27 H         121.2711  151.7055  148.7539 H       1  UNL111      0.0542
     28 H         120.3358  153.1566  149.0725 H       1  UNL111      0.0542
     29 H         120.9656  150.5438  144.1954 H       1  UNL111      0.0477
     30 H         120.1239  152.0703  144.0161 H       1  UNL111      0.0477
     31 H         121.5007  154.0390  143.9962 H       1  UNL111      0.0613
     32 H         122.3504  154.9690  145.2218 H       1  UNL111      0.0613
     33 H         121.9660  154.5698  147.8908 H       1  UNL111      0.0738
     34 H         122.8579  153.4818  148.9738 H       1  UNL111      0.0738
     35 H         118.6081  149.9510  144.2791 H       1  UNL111      0.0779
     36 H         124.0520  154.8169  146.5718 H       1  UNL111      0.0667
     37 H         124.8098  153.3399  145.8650 H       1  UNL111      0.0667
     38 H         124.8930  153.6353  147.6275 H       1  UNL111      0.0667
     39 H         120.0589  156.4495  144.6220 H       1  UNL111      0.0939
     40 H         117.0737  149.4997  147.3656 H       1  UNL111      0.0400
     41 H         116.7554  149.4116  145.6297 H       1  UNL111      0.0400
     42 H         116.2170  150.8244  146.5453 H       1  UNL111      0.0400
     43 H         117.7567  156.8337  145.4545 H       1  UNL111      0.1139
@<TRIPOS>UNITY_ATOM_ATTR
3 1
charge 1
@<TRIPOS>BOND
     1     1     7    1
     2     1    15    1
     3     2    19    1
     4     3     6    1
     5     3    12    1
     6     3    17    1
     7     4     5    1
     8     4     7    1
     9     4     8    1
    10     4     9    1
    11     5     6    1
    12     5    10    1
    13     6    11    1
    14     7    14    1
    15     8    12    1
    16     9    13   ar
    17     9    15   ar
    18    10    16    1
    19    11    13    1
    20    13    18   ar
    21    14    16    2
    22    14    20    1
    23    15    19   ar
    24    18    21   ar
    25    19    21   ar
    26     2    22    1
    27     3    23    1
    28     5    24    1
    29     6    25    1
    30     7    26    1
    31     8    27    1
    32     8    28    1
    33    10    29    1
    34    10    30    1
    35    11    31    1
    36    11    32    1
    37    12    33    1
    38    12    34    1
    39    16    35    1
    40    17    36    1
    41    17    37    1
    42    17    38    1
    43    18    39    1
    44    20    40    1
    45    20    41    1
    46    20    42    1
    47    21    43    1
@<TRIPOS>MOLECULE
927723
 26 26 0 0 0
SMALL
GASTEIGER

@<TRIPOS>ATOM
      1 O          -1.2450   -2.6865   -0.0835 O.2     1  LEU1111    -0.3757
      2 O          -1.3030    2.6428   -0.4908 O.2     2  GLY2222    -0.3770
      3 N          -0.2878    0.6665   -0.9274 N.am    1  LEU1111    -0.2932
      4 N          -2.2451   -0.7120    0.3805 N.am    2  GLY2222    -0.2953
      5 CA          0.0803   -0.6658   -0.4602 C.3     1  LEU1111     0.0935
      6 CB          1.0365   -0.6542    0.7444 C.3     1  LEU1111    -0.0182
      7 CG          2.4496   -0.0721    0.5307 C.3     1  LEU1111    -0.0537
      8 C          -1.1925   -1.4602   -0.0911 C.2     1  LEU1111     0.1674
      9 CD1         3.1816   -0.7048   -0.6514 C.3     1  LEU1111    -0.0665
     10 CD2         2.4656    1.4525    0.4212 C.3     1  LEU1111    -0.0665
     11 CA         -2.0969    0.6913    0.7253 C.3     2  GLY2222     0.0900
     12 C          -1.2432    1.4322   -0.3041 C.2     2  GLY2222     0.1649
     13 H           0.2887    1.1460   -1.6068 H       1  LEU1111     0.1950
     14 H          -3.0594   -1.2325    0.6813 H       2  GLY2222     0.1936
     15 H           0.5323   -1.1790   -1.3155 H       1  LEU1111     0.1194
     16 H           1.1617   -1.6932    1.0808 H       1  LEU1111     0.0484
     17 H           0.5711   -0.1343    1.5912 H       1  LEU1111     0.0484
     18 H           3.0203   -0.3232    1.4355 H       1  LEU1111     0.0375
     19 H           2.7274   -0.4259   -1.6075 H       1  LEU1111     0.0269
     20 H           3.1772   -1.7968   -0.5732 H       1  LEU1111     0.0269
     21 H           4.2264   -0.3764   -0.6750 H       1  LEU1111     0.0269
     22 H           2.0924    1.8026   -0.5447 H       1  LEU1111     0.0269
     23 H           3.4901    1.8277    0.5235 H       1  LEU1111     0.0269
     24 H           1.8651    1.9114    1.2133 H       1  LEU1111     0.0269
     25 H          -1.6277    0.7645    1.7101 H       2  GLY2222     0.1132
     26 H          -3.0957    1.1348    0.7532 H       2  GLY2222     0.1132
@<TRIPOS>BOND
     1     1     8    2
     2     2    12    2
     3     3     5    1
     4     3    12   am
     5     4     8   am
     6     4    11    1
     7     5     6    1
     8     5     8    1
     9     6     7    1
    10     7     9    1
    11     7    10    1
    12    11    12    1
    13     3    13    1
    14     4    14    1
    15     5    15    1
    16     6    16    1
    17     6    17    1
    18     7    18    1
    19     9    19    1
    20     9    20    1
    21     9    21    1
    22    10    22    1
    23    10    23    1
    24    10    24    1
    25    11    25    1
    26    11    26    1
@<TRIPOS>MOLECULE
5362456
 42 46 0 0 0
SMALL
GASTEIGER

@<TRIPOS>ATOM
      1 O         121.7977  154.1510  147.5946 O.3     1  UNL111     -0.5552
      2 O         123.9072  152.2388  146.9337 O.3     1  UNL111     -0.5485
      3 N         116.9604  152.4045  146.9570 N.4     1  UNL111      0.4269
      4 C         119.4686  153.8620  147.0170 C.3     1  UNL111      0.0400
      5 C         118.3569  154.2149  146.0259 C.3     1  UNL111     -0.0208
      6 C         117.6357  152.8926  145.6542 C.3     1  UNL111     -0.0259
      7 C         120.5778  154.9053  147.2717 C.3     1  UNL111      0.0590
      8 C         118.8377  153.3339  148.3247 C.3     1  UNL111     -0.0287
      9 C         120.3439  152.8034  146.4496 C.ar    1  UNL111      0.0197
     10 C         118.8616  155.0104  144.8180 C.3     1  UNL111     -0.0473
     11 C         120.8851  155.8277  146.0756 C.3     1  UNL111     -0.0212
     12 C         118.5691  151.8061  145.0257 C.3     1  UNL111     -0.0226
     13 C         117.9173  152.1337  148.0981 C.3     1  UNL111     -0.0370
     14 C         119.6450  156.2353  145.2891 C.3     1  UNL111     -0.0490
     15 C         119.9662  151.7930  145.5851 C.ar    1  UNL111     -0.0432
     16 C         121.6427  152.9880  146.8769 C.ar    1  UNL111      0.1023
     17 C         115.9920  151.2687  146.7543 C.3     1  UNL111     -0.0445
     18 C         120.9570  150.8821  145.2110 C.ar    1  UNL111     -0.0573
     19 C         122.6209  152.0916  146.5256 C.ar    1  UNL111      0.0914
     20 C         122.2763  151.0225  145.6971 C.ar    1  UNL111     -0.0140
     21 H         123.9468  153.0619  147.4564 H       1  UNL111      0.3393
     22 H         116.3680  153.1861  147.2693 H       1  UNL111      0.1324
     23 H         117.6363  154.8730  146.5349 H       1  UNL111      0.0615
     24 H         116.8060  153.1000  144.9678 H       1  UNL111      0.0834
     25 H         120.3277  155.5260  148.1410 H       1  UNL111      0.1262
     26 H         118.2597  154.1427  148.7915 H       1  UNL111      0.0539
     27 H         119.6056  153.0487  149.0556 H       1  UNL111      0.0539
     28 H         118.0072  155.3354  144.2126 H       1  UNL111      0.0376
     29 H         119.4943  154.3985  144.1652 H       1  UNL111      0.0376
     30 H         121.5977  155.3478  145.3920 H       1  UNL111      0.0510
     31 H         121.4041  156.7222  146.4417 H       1  UNL111      0.0510
     32 H         118.6567  152.0288  143.9542 H       1  UNL111      0.0613
     33 H         118.1313  150.8070  145.1054 H       1  UNL111      0.0613
     34 H         118.4692  151.2176  147.8658 H       1  UNL111      0.0738
     35 H         117.3091  151.9517  148.9910 H       1  UNL111      0.0738
     36 H         119.0047  156.8739  145.9095 H       1  UNL111      0.0354
     37 H         119.9459  156.8319  144.4204 H       1  UNL111      0.0354
     38 H         116.5475  150.3546  146.5363 H       1  UNL111      0.0667
     39 H         115.3227  151.5343  145.9322 H       1  UNL111      0.0667
     40 H         115.4168  151.1540  147.6773 H       1  UNL111      0.0667
     41 H         120.7374  150.0672  144.5233 H       1  UNL111      0.0939
     42 H         123.0440  150.3129  145.3949 H       1  UNL111      0.1139
@<TRIPOS>UNITY_ATOM_ATTR
3 1
charge 1
@<TRIPOS>BOND
     1     1     7    1
     2     1    16    1
     3     2    19    1
     4     3     6    1
     5     3    13    1
     6     3    17    1
     7     4     5    1
     8     4     7    1
     9     4     8    1
    10     4     9    1
    11     5     6    1
    12     5    10    1
    13     6    12    1
    14     7    11    1
    15     8    13    1
    16     9    15   ar
    17     9    16   ar
    18    10    14    1
    19    11    14    1
    20    12    15    1
    21    15    18   ar
    22    16    19   ar
    23    18    20   ar
    24    19    20   ar
    25     2    21    1
    26     3    22    1
    27     5    23    1
    28     6    24    1
    29     7    25    1
    30     8    26    1
    31     8    27    1
    32    10    28    1
    33    10    29    1
    34    11    30    1
    35    11    31    1
    36    12    32    1
    37    12    33    1
    38    13    34    1
    39    13    35    1
    40    14    36    1
    41    14    37    1
    42    17    38    1
    43    17    39    1
    44    17    40    1
    45    18    41    1
    46    20    42    1
@<TRIPOS>MOLECULE
5362507
 54 59 0 0 0
SMALL
GASTEIGER

@<TRIPOS>ATOM
      1 O         119.7726  152.1845  147.5659 O.3     1  UNL111     -0.5437
      2 O         119.4061  150.6097  145.5125 O.3     1  UNL111     -0.4348
      3 O         117.7470  153.9854  146.7740 O.3     1  UNL111     -0.5550
      4 N         124.6511  153.7832  147.0055 N.4     1  UNL111      0.4275
      5 C         122.1179  152.3564  147.0449 C.3     1  UNL111      0.0532
      6 C         123.2619  151.9124  146.1270 C.3     1  UNL111     -0.0026
      7 C         124.0240  153.2074  145.7092 C.3     1  UNL111     -0.0206
      8 C         120.9639  151.3650  147.2992 C.3     1  UNL111      0.0902
      9 C         122.7148  152.9320  148.3493 C.3     1  UNL111     -0.0259
     10 C         121.2985  153.4194  146.3971 C.ar    1  UNL111      0.0235
     11 C         123.1390  154.2521  144.9582 C.3     1  UNL111     -0.0213
     12 C         123.6562  154.1114  148.0990 C.3     1  UNL111     -0.0364
     13 C         121.7346  154.3561  145.4827 C.ar    1  UNL111     -0.0425
     14 C         120.6659  150.3654  146.1349 C.3     1  UNL111      0.0605
     15 C         122.8179  151.0409  144.9892 C.2     1  UNL111     -0.0869
     16 C         119.9797  153.3088  146.7923 C.ar    1  UNL111      0.1067
     17 C         121.6699  150.3490  145.0184 C.2     1  UNL111     -0.0672
     18 C         120.7886  155.2745  145.0265 C.ar    1  UNL111     -0.0570
     19 C         125.6091  154.9209  146.7647 C.3     1  UNL111     -0.0442
     20 C         119.0205  154.1923  146.3417 C.ar    1  UNL111      0.0963
     21 C         119.4464  155.2053  145.4708 C.ar    1  UNL111     -0.0123
     22 C         116.7044  154.5243  145.9633 C.3     1  UNL111      0.0643
     23 C         115.4267  153.8063  146.3161 C.ar    1  UNL111     -0.0374
     24 C         115.1555  152.5431  145.7686 C.ar    1  UNL111     -0.0702
     25 C         114.5105  154.3676  147.2157 C.ar    1  UNL111     -0.0702
     26 C         113.9809  151.8657  146.0980 C.ar    1  UNL111     -0.0836
     27 C         113.3360  153.6878  147.5438 C.ar    1  UNL111     -0.0836
     28 C         113.0706  152.4395  146.9833 C.ar    1  UNL111     -0.0863
     29 H         118.8282  151.0188  146.1867 H       1  UNL111      0.2424
     30 H         125.2426  153.0291  147.3813 H       1  UNL111      0.1328
     31 H         123.9579  151.2831  146.7020 H       1  UNL111      0.0720
     32 H         124.8827  152.9460  145.0783 H       1  UNL111      0.0854
     33 H         121.1698  150.7807  148.2052 H       1  UNL111      0.1417
     34 H         123.2666  152.1377  148.8695 H       1  UNL111      0.0544
     35 H         121.9285  153.2581  149.0424 H       1  UNL111      0.0544
     36 H         123.0651  153.9288  143.9114 H       1  UNL111      0.0615
     37 H         123.6067  155.2406  144.9503 H       1  UNL111      0.0615
     38 H         123.1208  155.0200  147.8061 H       1  UNL111      0.0738
     39 H         124.2351  154.3305  149.0030 H       1  UNL111      0.0738
     40 H         120.6122  149.3557  146.5584 H       1  UNL111      0.1221
     41 H         123.4747  150.9187  144.1291 H       1  UNL111      0.0812
     42 H         121.4142  149.7103  144.1728 H       1  UNL111      0.0909
     43 H         121.0606  156.0387  144.3001 H       1  UNL111      0.0939
     44 H         125.0442  155.8178  146.5024 H       1  UNL111      0.0667
     45 H         126.2904  154.6300  145.9614 H       1  UNL111      0.0667
     46 H         126.1714  155.0820  147.6886 H       1  UNL111      0.0667
     47 H         118.7464  155.9454  145.0906 H       1  UNL111      0.1143
     48 H         116.9039  154.3774  144.8935 H       1  UNL111      0.1283
     49 H         116.6029  155.5991  146.1563 H       1  UNL111      0.1283
     50 H         115.8619  152.0791  145.0833 H       1  UNL111      0.0920
     51 H         114.7058  155.3362  147.6699 H       1  UNL111      0.0920
     52 H         113.7768  150.8893  145.6663 H       1  UNL111      0.0879
     53 H         112.6280  154.1304  148.2398 H       1  UNL111      0.0879
     54 H         112.1558  151.9115  147.2403 H       1  UNL111      0.0874
@<TRIPOS>UNITY_ATOM_ATTR
4 1
charge 1
@<TRIPOS>BOND
     1     1     8    1
     2     1    16    1
     3     2    14    1
     4     3    20    1
     5     3    22    1
     6     4     7    1
     7     4    12    1
     8     4    19    1
     9     5     6    1
    10     5     8    1
    11     5     9    1
    12     5    10    1
    13     6     7    1
    14     6    15    1
    15     7    11    1
    16     8    14    1
    17     9    12    1
    18    10    13   ar
    19    10    16   ar
    20    11    13    1
    21    13    18   ar
    22    14    17    1
    23    15    17    2
    24    16    20   ar
    25    18    21   ar
    26    20    21   ar
    27    22    23    1
    28    23    24   ar
    29    23    25   ar
    30    24    26   ar
    31    25    27   ar
    32    26    28   ar
    33    27    28   ar
    34     2    29    1
    35     4    30    1
    36     6    31    1
    37     7    32    1
    38     8    33    1
    39     9    34    1
    40     9    35    1
    41    11    36    1
    42    11    37    1
    43    12    38    1
    44    12    39    1
    45    14    40    1
    46    15    41    1
    47    17    42    1
    48    18    43    1
    49    19    44    1
    50    19    45    1
    51    19    46    1
    52    21    47    1
    53    22    48    1
    54    22    49    1
    55    24    50    1
    56    25    51    1
    57    26    52    1
    58    27    53    1
    59    28    54    1
@<TRIPOS>MOLECULE
5488391
 45 49 0 0 0
SMALL
GASTEIGER

@<TRIPOS>ATOM
      1 O         119.0373  151.3362  147.8195 O.3     1  UNL111     -0.5436
      2 O         119.0441  149.4092  146.0121 O.3     1  UNL111     -0.4348
      3 O         116.4096  152.5229  147.7673 O.3     1  UNL111     -0.5464
      4 O         115.9135  155.9054  145.2889 O.3     1  UNL111     -0.4465
      5 N         122.9927  154.5438  146.6650 N.4     1  UNL111      0.4275
      6 C         121.0689  152.3847  146.9799 C.3     1  UNL111      0.0533
      7 C         121.9848  152.4551  145.7479 C.3     1  UNL111     -0.0026
      8 C         122.2242  153.9694  145.4497 C.3     1  UNL111     -0.0206
      9 C         120.3896  151.0322  147.3098 C.3     1  UNL111      0.0902
     10 C         121.7870  152.9896  148.2048 C.3     1  UNL111     -0.0259
     11 C         119.8279  153.1652  146.7028 C.ar    1  UNL111      0.0240
     12 C         120.9194  154.7673  145.1437 C.3     1  UNL111     -0.0210
     13 C         122.2567  154.4262  147.9802 C.3     1  UNL111     -0.0364
     14 C         119.7221  154.3018  145.9250 C.ar    1  UNL111     -0.0397
     15 C         120.3184  150.0290  146.1203 C.3     1  UNL111      0.0605
     16 C         121.4419  151.6681  144.5849 C.2     1  UNL111     -0.0869
     17 C         118.7339  152.5514  147.2638 C.ar    1  UNL111      0.1081
     18 C         120.6798  150.5795  144.7706 C.2     1  UNL111     -0.0672
     19 C         118.4545  154.8813  145.8106 C.ar    1  UNL111     -0.0445
     20 C         123.5219  155.9387  146.4457 C.3     1  UNL111     -0.0442
     21 C         117.4817  153.1182  147.1751 C.ar    1  UNL111      0.1050
     22 C         117.3207  154.3019  146.4390 C.ar    1  UNL111      0.0196
     23 C         115.9505  154.9244  146.3216 C.3     1  UNL111      0.0415
     24 H         118.3806  150.0463  146.3329 H       1  UNL111      0.2424
     25 H         116.7358  151.7285  148.2310 H       1  UNL111      0.3398
     26 H         114.9780  156.1530  145.1855 H       1  UNL111      0.2371
     27 H         123.8390  153.9649  146.7570 H       1  UNL111      0.1328
     28 H         122.9560  151.9982  145.9883 H       1  UNL111      0.0720
     29 H         122.9176  154.0761  144.6062 H       1  UNL111      0.0854
     30 H         120.9132  150.5312  148.1342 H       1  UNL111      0.1417
     31 H         122.6576  152.3655  148.4471 H       1  UNL111      0.0544
     32 H         121.1419  152.9714  149.0929 H       1  UNL111      0.0544
     33 H         120.6849  154.6165  144.0816 H       1  UNL111      0.0616
     34 H         121.0594  155.8425  145.2857 H       1  UNL111      0.0616
     35 H         121.4286  155.1417  147.9708 H       1  UNL111      0.0738
     36 H         122.9578  154.7212  148.7687 H       1  UNL111      0.0738
     37 H         121.0348  149.2220  146.3182 H       1  UNL111      0.1221
     38 H         121.7071  151.9558  143.5688 H       1  UNL111      0.0812
     39 H         120.3380  150.0085  143.9077 H       1  UNL111      0.0909
     40 H         118.3203  155.7739  145.1990 H       1  UNL111      0.0977
     41 H         122.6938  156.6492  146.4846 H       1  UNL111      0.0667
     42 H         124.0249  155.9649  145.4760 H       1  UNL111      0.0667
     43 H         124.2407  156.1487  147.2425 H       1  UNL111      0.0667
     44 H         115.2070  154.1585  146.0774 H       1  UNL111      0.1039
     45 H         115.6841  155.4100  147.2658 H       1  UNL111      0.1039
@<TRIPOS>UNITY_ATOM_ATTR
5 1
charge 1
@<TRIPOS>BOND
     1     1     9    1
     2     1    17    1
     3     2    15    1
     4     3    21    1
     5     4    23    1
     6     5     8    1
     7     5    13    1
     8     5    20    1
     9     6     7    1
    10     6     9    1
    11     6    10    1
    12     6    11    1
    13     7     8    1
    14     7    16    1
    15     8    12    1
    16     9    15    1
    17    10    13    1
    18    11    14   ar
    19    11    17   ar
    20    12    14    1
    21    14    19   ar
    22    15    18    1
    23    16    18    2
    24    17    21   ar
    25    19    22   ar
    26    21    22   ar
    27    22    23    1
    28     2    24    1
    29     3    25    1
    30     4    26    1
    31     5    27    1
    32     7    28    1
    33     8    29    1
    34     9    30    1
    35    10    31    1
    36    10    32    1
    37    12    33    1
    38    12    34    1
    39    13    35    1
    40    13    36    1
    41    15    37    1
    42    16    38    1
    43    18    39    1
    44    19    40    1
    45    20    41    1
    46    20    42    1
    47    20    43    1
    48    23    44    1
    49    23    45    1
@<TRIPOS>MOLECULE
5492619
 47 51 0 0 0
SMALL
GASTEIGER

@<TRIPOS>ATOM
      1 O         118.4061  152.4234  147.6376 O.3     1  UNL111     -0.5435
      2 O         117.7453  150.9201  145.4994 O.3     1  UNL111     -0.4467
      3 O         116.6031  154.5437  147.0797 O.3     1  UNL111     -0.5684
      4 N         123.3839  153.4370  146.8567 N.4     1  UNL111      0.4275
      5 C         120.7060  152.3079  146.9730 C.3     1  UNL111      0.0534
      6 C         121.7528  151.7610  145.9984 C.3     1  UNL111     -0.0025
      7 C         122.6427  152.9702  145.5766 C.3     1  UNL111     -0.0206
      8 C         119.4493  151.4597  147.2598 C.3     1  UNL111      0.0910
      9 C         121.4204  152.7729  148.2637 C.3     1  UNL111     -0.0258
     10 C         119.9931  153.4791  146.3877 C.ar    1  UNL111      0.0235
     11 C         121.8551  154.1269  144.8841 C.3     1  UNL111     -0.0213
     12 C         122.4779  153.8451  147.9998 C.3     1  UNL111     -0.0364
     13 C         118.9876  150.5250  146.0859 C.3     1  UNL111      0.0611
     14 C         120.5008  154.3852  145.4799 C.ar    1  UNL111     -0.0425
     15 C         121.1655  150.9814  144.8614 C.2     1  UNL111     -0.0867
     16 C         118.6965  153.5280  146.8651 C.ar    1  UNL111      0.1061
     17 C         119.9460  150.4294  144.9249 C.2     1  UNL111     -0.0662
     18 C         119.6597  155.4320  145.1066 C.ar    1  UNL111     -0.0571
     19 C         124.4528  154.4667  146.6005 C.3     1  UNL111     -0.0442
     20 C         117.8486  154.5646  146.5285 C.ar    1  UNL111      0.0926
     21 C         118.3527  155.5305  145.6431 C.ar    1  UNL111     -0.0130
     22 C         116.6137  150.3840  146.1754 C.3     1  UNL111      0.0016
     23 C         115.6887  155.5428  146.6479 C.3     1  UNL111      0.0331
     24 H         123.8999  152.6111  147.1897 H       1  UNL111      0.1328
     25 H         122.3934  151.0397  146.5279 H       1  UNL111      0.0720
     26 H         123.4398  152.6282  144.9047 H       1  UNL111      0.0854
     27 H         119.6310  150.8239  148.1361 H       1  UNL111      0.1419
     28 H         121.8989  151.9057  148.7381 H       1  UNL111      0.0544
     29 H         120.7079  153.1652  149.0009 H       1  UNL111      0.0544
     30 H         121.6944  153.8375  143.8372 H       1  UNL111      0.0615
     31 H         122.4375  155.0526  144.8690 H       1  UNL111      0.0615
     32 H         122.0385  154.8164  147.7521 H       1  UNL111      0.0738
     33 H         123.1144  153.9719  148.8825 H       1  UNL111      0.0738
     34 H         118.8886  149.5049  146.4823 H       1  UNL111      0.1236
     35 H         121.7668  150.8109  143.9696 H       1  UNL111      0.0812
     36 H         119.5844  149.8526  144.0735 H       1  UNL111      0.0911
     37 H         119.9851  156.1766  144.3821 H       1  UNL111      0.0939
     38 H         123.9824  155.4277  146.3827 H       1  UNL111      0.0667
     39 H         125.0645  154.1233  145.7626 H       1  UNL111      0.0667
     40 H         125.0662  154.5394  147.5028 H       1  UNL111      0.0667
     41 H         117.7396  156.3677  145.3201 H       1  UNL111      0.1142
     42 H         115.7122  150.8018  145.7195 H       1  UNL111      0.0826
     43 H         116.6204  150.6415  147.2378 H       1  UNL111      0.0826
     44 H         116.5887  149.2962  146.0583 H       1  UNL111      0.0826
     45 H         114.7322  155.3597  147.1468 H       1  UNL111      0.1074
     46 H         115.5183  155.4842  145.5677 H       1  UNL111      0.1074
     47 H         116.0311  156.5410  146.9400 H       1  UNL111      0.1074
@<TRIPOS>UNITY_ATOM_ATTR
4 1
charge 1
@<TRIPOS>BOND
     1     1     8    1
     2     1    16    1
     3     2    13    1
     4     2    22    1
     5     3    20    1
     6     3    23    1
     7     4     7    1
     8     4    12    1
     9     4    19    1
    10     5     6    1
    11     5     8    1
    12     5     9    1
    13     5    10    1
    14     6     7    1
    15     6    15    1
    16     7    11    1
    17     8    13    1
    18     9    12    1
    19    10    14   ar
    20    10    16   ar
    21    11    14    1
    22    13    17    1
    23    14    18   ar
    24    15    17    2
    25    16    20   ar
    26    18    21   ar
    27    20    21   ar
    28     4    24    1
    29     6    25    1
    30     7    26    1
    31     8    27    1
    32     9    28    1
    33     9    29    1
    34    11    30    1
    35    11    31    1
    36    12    32    1
    37    12    33    1
    38    13    34    1
    39    15    35    1
    40    17    36    1
    41    18    37    1
    42    19    38    1
    43    19    39    1
    44    19    40    1
    45    21    41    1
    46    22    42    1
    47    22    43    1
    48    22    44    1
    49    23    45    1
    50    23    46    1
    51    23    47    1
@<TRIPOS>MOLECULE
16217592
 31 35 0 0 0
SMALL
GASTEIGER

@<TRIPOS>ATOM
      1 O         121.4107  152.2383  147.0136 O.2     1  UNL111     -0.5317
      2 O         122.9318  154.0869  145.6382 O.3     1  UNL111     -0.4704
      3 O         121.4299  149.3203  146.5329 O.co2   1  UNL111     -0.7919
      4 O         123.7566  154.8273  147.6736 O.2     1  UNL111     -0.3404
      5 N         116.5287  154.8454  146.6963 N.4     1  UNL111      0.4425
      6 C         119.4170  153.5684  146.9081 C.3     1  UNL111      0.1143
      7 C         118.7498  154.3625  145.7181 C.3     1  UNL111      0.0713
      8 C         117.2814  154.1120  145.6403 C.3     1  UNL111      0.0451
      9 C         120.9376  153.5709  146.9642 C.3     1  UNL111      0.1889
     10 C         118.7150  154.0969  148.0895 C.3     1  UNL111      0.0755
     11 C         119.1561  152.1162  146.6687 C.2     1  UNL111      0.0272
     12 C         117.1365  152.6658  145.6574 C.3     1  UNL111      0.0637
     13 C         117.3179  154.6734  147.9386 C.3     1  UNL111      0.0452
     14 C         117.9936  151.6058  146.0974 C.2     1  UNL111     -0.0030
     15 C         121.6768  154.5040  146.0794 C.3     1  UNL111      0.2106
     16 C         119.6246  155.1684  144.9643 C.2     1  UNL111     -0.0006
     17 C         120.3296  151.3894  146.7746 C.2     1  UNL111      0.0508
     18 C         120.8058  155.1808  145.1659 C.2     1  UNL111      0.0488
     19 C         115.1099  154.4078  146.8125 C.3     1  UNL111     -0.0320
     20 C         117.9697  150.2762  145.7533 C.2     1  UNL111     -0.0116
     21 C         120.3818  150.0365  146.4603 C.2     1  UNL111     -0.0512
     22 C         119.1398  149.5203  145.9900 C.2     1  UNL111     -0.0254
     23 C         123.8593  154.1681  146.6445 C.2     1  UNL111      0.2203
     24 C         125.0816  153.3887  146.2621 C.3     1  UNL111      0.0557
     25 H         116.5507  155.8474  146.4622 H       1  UNL111      0.1528
     26 H         115.0593  153.3788  147.1821 H       1  UNL111      0.0693
     27 H         114.6352  154.5012  145.8311 H       1  UNL111      0.0693
     28 H         114.6140  155.0796  147.5198 H       1  UNL111      0.0693
     29 H         124.7964  152.3863  145.9313 H       1  UNL111      0.0794
     30 H         125.7313  153.2839  147.1356 H       1  UNL111      0.0794
     31 H         125.6225  153.9137  145.4715 H       1  UNL111      0.0794
@<TRIPOS>UNITY_ATOM_ATTR
3 1
charge -1
5 1
charge 1
@<TRIPOS>BOND
     1     1     9    1
     2     1    17    1
     3     2    15    1
     4     2    23    1
     5     3    21    1
     6     4    23    2
     7     5     8    1
     8     5    13    1
     9     5    19    1
    10     6     7    1
    11     6     9    1
    12     6    10    1
    13     6    11    1
    14     7     8    1
    15     7    16    1
    16     8    12    1
    17     9    15    1
    18    10    13    1
    19    11    14    2
    20    11    17    1
    21    12    14    1
    22    14    20    1
    23    15    18    1
    24    16    18    2
    25    17    21    2
    26    20    22    2
    27    21    22    1
    28    23    24    1
    29     5    25    1
    30    19    26    1
    31    19    27    1
    32    19    28    1
    33    24    29    1
    34    24    30    1
    35    24    31    1
@<TRIPOS>MOLECULE
71750840
 37 42 0 0 0
SMALL
GASTEIGER

@<TRIPOS>ATOM
      1 O         121.5573  156.1187  145.0920 O.2     1  UNL111     -0.5370
      2 O         118.2538  155.0214  146.1155 O.3     1  UNL111     -0.3337
      3 O         124.1904  156.9023  143.7808 O.co2   1  UNL111     -0.7919
      4 O         117.2075  152.8115  145.9307 O.3     1  UNL111     -0.3262
      5 O         118.3338  154.5177  148.8801 O.3     1  UNL111     -0.2560
      6 O         118.8198  151.7599  149.6340 O.3     1  UNL111     -0.2635
      7 O         118.9198  150.1250  147.3128 O.3     1  UNL111     -0.2676
      8 O         117.0256  150.4931  144.0561 O.co2   1  UNL111     -0.5492
      9 O         115.5813  149.8545  145.6789 O.co2   1  UNL111     -0.5492
     10 N         121.3382  151.4288  147.8925 N.4     1  UNL111      0.4425
     11 C         121.3453  154.1312  146.4456 C.3     1  UNL111      0.1098
     12 C         120.8932  152.7180  145.8983 C.3     1  UNL111      0.0693
     13 C         120.6240  155.3312  145.8430 C.3     1  UNL111      0.1722
     14 C         121.6986  151.6326  146.4902 C.3     1  UNL111      0.0449
     15 C         121.4231  154.0700  147.9047 C.3     1  UNL111      0.0745
     16 C         122.7271  154.3169  145.8714 C.2     1  UNL111      0.0262
     17 C         123.0871  152.0216  146.2108 C.3     1  UNL111      0.0637
     18 C         121.4268  152.7202  148.5787 C.3     1  UNL111      0.0451
     19 C         119.3247  154.9596  145.1935 C.3     1  UNL111      0.1716
     20 C         123.6703  153.2854  145.8222 C.2     1  UNL111     -0.0032
     21 C         120.1242  152.7531  144.7113 C.2     1  UNL111     -0.0073
     22 C         122.8145  155.4955  145.1407 C.2     1  UNL111      0.0493
     23 C         119.4963  153.7376  144.4432 C.2     1  UNL111      0.0270
     24 C         121.8567  150.2443  148.5375 C.3     1  UNL111     -0.0320
     25 C         124.8234  153.5252  145.1165 C.2     1  UNL111     -0.0116
     26 C         123.9832  155.8271  144.4400 C.2     1  UNL111     -0.0514
     27 C         124.9698  154.7951  144.5032 C.2     1  UNL111     -0.0254
     28 C         117.7862  153.8251  146.7117 C.3     1  UNL111      0.2451
     29 C         118.1507  153.5282  148.1053 C.3     1  UNL111      0.2743
     30 C         118.3032  152.1005  148.5211 C.3     1  UNL111      0.2696
     31 C         118.0702  151.0630  147.4591 C.3     1  UNL111      0.2526
     32 C         117.3279  151.4366  146.2453 C.3     1  UNL111      0.2099
     33 C         116.6213  150.4808  145.2752 C.2     1  UNL111      0.0968
     34 H         120.2710  151.2464  147.9071 H       1  UNL111      0.1528
     35 H         122.9374  150.3518  148.6779 H       1  UNL111      0.0693
     36 H         121.6531  149.3653  147.9178 H       1  UNL111      0.0693
     37 H         121.3762  150.1234  149.5131 H       1  UNL111      0.0693
@<TRIPOS>UNITY_ATOM_ATTR
3 1
charge -1
8 1
charge -1
10 1
charge 1
@<TRIPOS>BOND
     1     1    13    1
     2     1    22    1
     3     2    19    1
     4     2    28    1
     5     3    26    1
     6     4    28    1
     7     4    32    1
     8     5    29    1
     9     6    30    1
    10     7    31    1
    11     8    33   ar
    12     9    33   ar
    13    10    14    1
    14    10    18    1
    15    10    24    1
    16    11    12    1
    17    11    13    1
    18    11    15    1
    19    11    16    1
    20    12    14    1
    21    12    21    1
    22    13    19    1
    23    14    17    1
    24    15    18    1
    25    16    20    2
    26    16    22    1
    27    17    20    1
    28    19    23    1
    29    20    25    1
    30    21    23    2
    31    22    26    2
    32    25    27    2
    33    26    27    1
    34    28    29    1
    35    29    30    1
    36    30    31    1
    37    31    32    1
    38    32    33    1
    39    10    34    1
    40    24    35    1
    41    24    36    1
    42    24    37    1
@<TRIPOS>MOLECULE
53327323
 51 55 0 0 0
SMALL
GASTEIGER

@<TRIPOS>ATOM
      1 O         118.6986  153.3033  145.0737 O.3     1  UNL111     -0.5437
      2 O         117.5627  154.5640  147.1071 O.3     1  UNL111     -0.4347
      3 O         117.5257  150.7085  145.7175 O.3     1  UNL111     -0.5485
      4 O         115.5178  152.6854  145.9225 O.3     1  UNL111     -0.4624
      5 N         123.7851  153.7203  145.8506 N.4     1  UNL111      0.4275
      6 C         120.8953  154.0235  145.7471 C.3     1  UNL111      0.0534
      7 C         121.7285  154.7713  146.7931 C.3     1  UNL111     -0.0025
      8 C         122.9386  153.8481  147.1430 C.3     1  UNL111     -0.0206
      9 C         119.4493  154.5021  145.4770 C.3     1  UNL111      0.0914
     10 C         121.7187  153.8691  144.4489 C.3     1  UNL111     -0.0258
     11 C         120.5457  152.6646  146.2516 C.ar    1  UNL111      0.0232
     12 C         122.5308  152.4594  147.7278 C.3     1  UNL111     -0.0213
     13 C         123.0420  153.1367  144.6678 C.3     1  UNL111     -0.0364
     14 C         118.7469  155.2368  146.6697 C.3     1  UNL111      0.0643
     15 C         121.2931  151.8760  147.1070 C.ar    1  UNL111     -0.0425
     16 C         120.9200  155.2224  147.9753 C.2     1  UNL111     -0.0866
     17 C         119.2982  152.3016  145.7938 C.ar    1  UNL111      0.1050
     18 C         119.5963  155.4254  147.9012 C.2     1  UNL111     -0.0658
     19 C         125.1155  153.0439  146.0585 C.3     1  UNL111     -0.0442
     20 C         120.7742  150.6184  147.4257 C.ar    1  UNL111     -0.0573
     21 C         118.7715  151.0747  146.1121 C.ar    1  UNL111      0.0917
     22 C         119.5239  150.2131  146.9109 C.ar    1  UNL111     -0.0140
     23 C         116.4068  154.9067  146.3312 C.3     1  UNL111      0.0297
     24 C         115.2789  153.9174  146.6224 C.3     1  UNL111      0.0233
     25 C         114.4539  151.7620  146.1544 C.3     1  UNL111     -0.0027
     26 H         117.0388  151.5418  145.5224 H       1  UNL111      0.3393
     27 H         124.0283  154.6841  145.5841 H       1  UNL111      0.1328
     28 H         122.1252  155.6953  146.3470 H       1  UNL111      0.0720
     29 H         123.5983  154.3572  147.8568 H       1  UNL111      0.0854
     30 H         119.4396  155.1841  144.6169 H       1  UNL111      0.1419
     31 H         121.9254  154.8667  144.0389 H       1  UNL111      0.0544
     32 H         121.1521  153.3346  143.6753 H       1  UNL111      0.0544
     33 H         122.3157  152.6021  148.7951 H       1  UNL111      0.0615
     34 H         123.3521  151.7400  147.6656 H       1  UNL111      0.0615
     35 H         122.9055  152.0660  144.8485 H       1  UNL111      0.0738
     36 H         123.6890  153.2574  143.7919 H       1  UNL111      0.0738
     37 H         118.4781  156.2499  146.3389 H       1  UNL111      0.1242
     38 H         121.4270  155.4344  148.9154 H       1  UNL111      0.0812
     39 H         119.0655  155.7758  148.7861 H       1  UNL111      0.0912
     40 H         124.9575  151.9727  146.1989 H       1  UNL111      0.0667
     41 H         125.5951  153.4940  146.9310 H       1  UNL111      0.0667
     42 H         125.7220  153.2249  145.1668 H       1  UNL111      0.0667
     43 H         121.3027  149.9496  148.1022 H       1  UNL111      0.0939
     44 H         119.1132  149.2427  147.1815 H       1  UNL111      0.1139
     45 H         116.6457  154.8994  145.2623 H       1  UNL111      0.1006
     46 H         116.0958  155.9150  146.6247 H       1  UNL111      0.1006
     47 H         115.2175  153.7129  147.6971 H       1  UNL111      0.0992
     48 H         114.3311  154.3397  146.2705 H       1  UNL111      0.0992
     49 H         114.6596  150.8486  145.5902 H       1  UNL111      0.0817
     50 H         113.5033  152.1782  145.8072 H       1  UNL111      0.0817
     51 H         114.3930  151.5117  147.2178 H       1  UNL111      0.0817
@<TRIPOS>UNITY_ATOM_ATTR
5 1
charge 1
@<TRIPOS>BOND
     1     1     9    1
     2     1    17    1
     3     2    14    1
     4     2    23    1
     5     3    21    1
     6     4    24    1
     7     4    25    1
     8     5     8    1
     9     5    13    1
    10     5    19    1
    11     6     7    1
    12     6     9    1
    13     6    10    1
    14     6    11    1
    15     7     8    1
    16     7    16    1
    17     8    12    1
    18     9    14    1
    19    10    13    1
    20    11    15   ar
    21    11    17   ar
    22    12    15    1
    23    14    18    1
    24    15    20   ar
    25    16    18    2
    26    17    21   ar
    27    20    22   ar
    28    21    22   ar
    29    23    24    1
    30     3    26    1
    31     5    27    1
    32     7    28    1
    33     8    29    1
    34     9    30    1
    35    10    31    1
    36    10    32    1
    37    12    33    1
    38    12    34    1
    39    13    35    1
    40    13    36    1
    41    14    37    1
    42    16    38    1
    43    18    39    1
    44    19    40    1
    45    19    41    1
    46    19    42    1
    47    20    43    1
    48    22    44    1
    49    23    45    1
    50    23    46    1
    51    24    47    1
    52    24    48    1
    53    25    49    1
    54    25    50    1
    55    25    51    1
