@<TRIPOS>MOLECULE
44301701
 61 64 0 0 0
SMALL
GASTEIGER

@<TRIPOS>ATOM
      1 O         122.2493  154.3620  148.5510 O.2     1  UNL111     -0.3889
      2 O         124.4487  152.4345  148.2856 O.2     1  UNL111     -0.5766
      3 O         117.2870  149.6050  145.8591 O.3     1  UNL111     -0.5241
      4 O         115.5422  152.1159  148.5176 O.co2   1  UNL111     -0.7544
      5 O         117.8757  151.3511  144.4913 O.2     1  UNL111     -0.3265
      6 N         119.0154  155.6090  146.2026 N.4     1  UNL111      0.4321
      7 N         121.5512  154.2502  145.0575 N.pl3   1  UNL111     -0.3332
      8 C         119.8099  154.4954  146.8581 C.3     1  UNL111      0.0073
      9 C         121.2389  154.8024  146.3865 C.3     1  UNL111      0.0913
     10 C         119.1822  153.1639  146.4629 C.3     1  UNL111     -0.0280
     11 C         121.3041  156.3341  146.3648 C.3     1  UNL111     -0.0087
     12 C         117.6878  153.1335  146.8720 C.3     1  UNL111      0.0073
     13 C         116.8869  154.3489  146.2950 C.3     1  UNL111     -0.0364
     14 C         119.8584  156.8272  146.4596 C.3     1  UNL111     -0.0284
     15 C         117.5993  155.6591  146.6798 C.3     1  UNL111     -0.0348
     16 C         122.2279  154.1656  147.3493 C.2     1  UNL111      0.1713
     17 C         116.6087  154.2290  144.7781 C.3     1  UNL111     -0.0555
     18 C         123.0879  153.2804  146.5701 C.3     1  UNL111      0.1054
     19 C         122.6629  153.4105  145.2435 C.3     1  UNL111      0.0240
     20 C         117.0034  151.7901  146.6677 C.2     1  UNL111      0.0342
     21 C         115.8016  155.3862  144.2027 C.3     1  UNL111     -0.0668
     22 C         124.1317  152.4577  146.9628 C.3     1  UNL111      0.0726
     23 C         123.2712  152.6617  144.2558 C.3     1  UNL111     -0.0479
     24 C         117.4191  150.9145  145.5371 C.2     1  UNL111      0.2438
     25 C         116.0117  151.3641  147.4697 C.2     1  UNL111     -0.1047
     26 C         124.7568  151.7204  145.9546 C.3     1  UNL111     -0.0227
     27 C         124.3281  151.8199  144.6160 C.3     1  UNL111     -0.0615
     28 C         125.5516  151.6270  148.6811 C.3     1  UNL111      0.0306
     29 C         117.7295  148.7025  144.8429 C.3     1  UNL111      0.0473
     30 C         114.4351  151.5019  149.1788 C.3     1  UNL111     -0.0992
     31 H         119.0172  155.4361  145.1858 H       1  UNL111      0.1366
     32 H         121.4654  154.7445  144.1761 H       1  UNL111      0.1792
     33 H         119.7172  154.6444  147.9437 H       1  UNL111      0.0962
     34 H         119.7218  152.3445  146.9533 H       1  UNL111      0.0535
     35 H         119.2889  153.0187  145.3843 H       1  UNL111      0.0535
     36 H         121.7661  156.7117  145.4446 H       1  UNL111      0.0640
     37 H         121.8872  156.7434  147.1978 H       1  UNL111      0.0640
     38 H         117.7077  153.2896  147.9630 H       1  UNL111      0.0649
     39 H         115.9065  154.3699  146.7916 H       1  UNL111      0.0557
     40 H         119.6261  157.1941  147.4653 H       1  UNL111      0.0757
     41 H         119.6079  157.5822  145.7093 H       1  UNL111      0.0757
     42 H         117.1333  156.5449  146.2407 H       1  UNL111      0.0750
     43 H         117.6212  155.7894  147.7684 H       1  UNL111      0.0750
     44 H         116.0315  153.3163  144.5924 H       1  UNL111      0.0352
     45 H         117.5407  154.1336  144.2114 H       1  UNL111      0.0352
     46 H         114.8953  155.5657  144.7894 H       1  UNL111      0.0262
     47 H         115.4995  155.1562  143.1757 H       1  UNL111      0.0262
     48 H         116.3874  156.3091  144.1694 H       1  UNL111      0.0262
     49 H         122.9419  152.7097  143.2224 H       1  UNL111      0.1002
     50 H         115.5067  150.4131  147.3365 H       1  UNL111      0.0566
     51 H         125.5814  151.0458  146.1697 H       1  UNL111      0.1115
     52 H         124.8251  151.2238  143.8515 H       1  UNL111      0.0926
     53 H         125.6824  151.7454  149.7610 H       1  UNL111      0.1070
     54 H         126.4759  151.9556  148.1945 H       1  UNL111      0.1070
     55 H         125.3545  150.5685  148.4822 H       1  UNL111      0.1070
     56 H         117.6102  147.6831  145.2199 H       1  UNL111      0.1105
     57 H         118.7883  148.8666  144.6182 H       1  UNL111      0.1105
     58 H         117.1192  148.8149  143.9416 H       1  UNL111      0.1105
     59 H         114.1173  152.1618  149.9911 H       1  UNL111     -0.0001
     60 H         114.7266  150.5383  149.6100 H       1  UNL111     -0.0001
     61 H         113.5942  151.3753  148.4884 H       1  UNL111     -0.0001
@<TRIPOS>UNITY_ATOM_ATTR
4 1
charge -1
6 1
charge 1
@<TRIPOS>BOND
     1     1    16    2
     2     2    22    1
     3     2    28    1
     4     3    24    1
     5     3    29    1
     6     4    25    1
     7     4    30    1
     8     5    24    2
     9     6     8    1
    10     6    14    1
    11     6    15    1
    12     7     9    1
    13     7    19    1
    14     8     9    1
    15     8    10    1
    16     9    11    1
    17     9    16    1
    18    10    12    1
    19    11    14    1
    20    12    13    1
    21    12    20    1
    22    13    15    1
    23    13    17    1
    24    16    18    1
    25    17    21    1
    26    18    19   ar
    27    18    22   ar
    28    19    23   ar
    29    20    24    1
    30    20    25    2
    31    22    26   ar
    32    23    27   ar
    33    26    27   ar
    34     6    31    1
    35     7    32    1
    36     8    33    1
    37    10    34    1
    38    10    35    1
    39    11    36    1
    40    11    37    1
    41    12    38    1
    42    13    39    1
    43    14    40    1
    44    14    41    1
    45    15    42    1
    46    15    43    1
    47    17    44    1
    48    17    45    1
    49    21    46    1
    50    21    47    1
    51    21    48    1
    52    23    49    1
    53    25    50    1
    54    26    51    1
    55    27    52    1
    56    28    53    1
    57    28    54    1
    58    28    55    1
    59    29    56    1
    60    29    57    1
    61    29    58    1
    62    30    59    1
    63    30    60    1
    64    30    61    1
