@<TRIPOS>MOLECULE
131955138
 61 67 0 0 0
SMALL
GASTEIGER

@<TRIPOS>ATOM
      1 I         111.9426  151.7863  148.9422 I       1  UNL111     -0.0743
      2 O         119.6425  155.0284  147.3948 O.2     1  UNL111     -0.5466
      3 O         120.4871  157.8153  147.4294 O.2     1  UNL111     -0.5485
      4 O         116.5311  154.3219  147.0517 O.2     1  UNL111     -0.3690
      5 N         123.4411  151.5859  146.6570 N.4     1  UNL111      0.4285
      6 N         117.5264  152.9962  145.4787 N.am    1  UNL111     -0.2985
      7 C         121.0082  153.1838  146.6444 C.3     1  UNL111      0.0512
      8 C         121.3484  152.2584  145.4714 C.3     1  UNL111     -0.0033
      9 C         122.9061  152.2381  145.3599 C.3     1  UNL111     -0.0198
     10 C         119.5528  153.6860  146.7822 C.3     1  UNL111      0.0844
     11 C         121.5384  152.5643  147.9556 C.3     1  UNL111     -0.0261
     12 C         121.6520  154.5131  146.4438 C.3     1  UNL111      0.0227
     13 C         123.0437  152.3041  147.9287 C.3     1  UNL111     -0.0355
     14 C         123.5462  153.6387  145.0978 C.3     1  UNL111     -0.0211
     15 C         118.7500  153.7883  145.4410 C.3     1  UNL111      0.0548
     16 C         122.8499  154.7690  145.8023 C.3     1  UNL111     -0.0426
     17 C         124.9248  151.2783  146.6081 C.3     1  UNL111     -0.0392
     18 C         120.6380  152.6386  144.2020 C.2     1  UNL111     -0.0897
     19 C         125.3164  150.1516  147.5116 C.3     1  UNL111     -0.0508
     20 C         120.8458  155.5077  146.9492 C.3     1  UNL111      0.1043
     21 C         119.4850  153.3241  144.2062 C.2     1  UNL111     -0.0749
     22 C         126.3375  149.1336  147.0703 C.3     1  UNL111     -0.0533
     23 C         124.8940  148.7345  147.2073 C.3     1  UNL111     -0.0533
     24 C         123.2762  156.0992  145.7636 C.3     1  UNL111     -0.0573
     25 C         121.2582  156.8169  146.9284 C.3     1  UNL111      0.0916
     26 C         122.4888  157.1171  146.3446 C.3     1  UNL111     -0.0140
     27 C         116.4651  153.3759  146.2761 C.2     1  UNL111      0.1832
     28 C         115.2295  152.5471  146.2037 C.3     1  UNL111      0.0463
     29 C         114.3728  152.5495  147.3131 C.3     1  UNL111     -0.0241
     30 C         114.8922  151.7969  145.0688 C.3     1  UNL111     -0.0481
     31 C         113.2059  151.7861  147.2921 C.3     1  UNL111     -0.0021
     32 C         113.7215  151.0339  145.0576 C.3     1  UNL111     -0.0739
     33 C         112.8800  151.0241  146.1707 C.3     1  UNL111     -0.0595
     34 H         119.6545  157.4058  147.7362 H       1  UNL111      0.3393
     35 H         123.0007  150.6579  146.7049 H       1  UNL111      0.1345
     36 H         117.4609  152.1596  144.9169 H       1  UNL111      0.1947
     37 H         121.0096  151.2375  145.7012 H       1  UNL111      0.0719
     38 H         123.2055  151.5518  144.5578 H       1  UNL111      0.0857
     39 H         119.0072  153.0588  147.4985 H       1  UNL111      0.1379
     40 H         121.0158  151.6154  148.1364 H       1  UNL111      0.0544
     41 H         121.3141  153.2035  148.8196 H       1  UNL111      0.0544
     42 H         123.6286  153.2269  147.9933 H       1  UNL111      0.0741
     43 H         123.3218  151.6608  148.7697 H       1  UNL111      0.0741
     44 H         123.4725  153.8389  144.0208 H       1  UNL111      0.0615
     45 H         124.6110  153.6446  145.3494 H       1  UNL111      0.0615
     46 H         118.4477  154.8317  145.2821 H       1  UNL111      0.1061
     47 H         125.4674  152.1917  146.8736 H       1  UNL111      0.0743
     48 H         125.1608  151.0268  145.5679 H       1  UNL111      0.0743
     49 H         121.0563  152.3248  143.2467 H       1  UNL111      0.0805
     50 H         125.3628  150.4562  148.5523 H       1  UNL111      0.0513
     51 H         119.0181  153.5793  143.2545 H       1  UNL111      0.0868
     52 H         127.0379  148.7555  147.8099 H       1  UNL111      0.0366
     53 H         126.7566  149.1891  146.0711 H       1  UNL111      0.0366
     54 H         124.3607  148.5056  146.2912 H       1  UNL111      0.0366
     55 H         124.6361  148.0828  148.0373 H       1  UNL111      0.0366
     56 H         124.2037  156.3760  145.2655 H       1  UNL111      0.0939
     57 H         122.8227  158.1520  146.3054 H       1  UNL111      0.1139
     58 H         114.6222  153.1511  148.1854 H       1  UNL111      0.1050
     59 H         115.5029  151.8164  144.1717 H       1  UNL111      0.0969
     60 H         113.4539  150.4561  144.1753 H       1  UNL111      0.0895
     61 H         111.9688  150.4302  146.1445 H       1  UNL111      0.0957
@<TRIPOS>UNITY_ATOM_ATTR
5 1
charge 1
@<TRIPOS>BOND
     1     1    31    1
     2     2    10    1
     3     2    20    1
     4     3    25    1
     5     4    27    2
     6     5     9    1
     7     5    13    1
     8     5    17    1
     9     6    15    1
    10     6    27   am
    11     7     8    1
    12     7    10    1
    13     7    11    1
    14     7    12    1
    15     8     9    1
    16     8    18    1
    17     9    14    1
    18    10    15    1
    19    11    13    1
    20    12    16   ar
    21    12    20   ar
    22    14    16    1
    23    15    21    1
    24    16    24   ar
    25    17    19    1
    26    18    21    2
    27    19    22    1
    28    19    23    1
    29    20    25   ar
    30    22    23    1
    31    24    26   ar
    32    25    26   ar
    33    27    28    1
    34    28    29   ar
    35    28    30   ar
    36    29    31   ar
    37    30    32   ar
    38    31    33   ar
    39    32    33   ar
    40     3    34    1
    41     5    35    1
    42     6    36    1
    43     8    37    1
    44     9    38    1
    45    10    39    1
    46    11    40    1
    47    11    41    1
    48    13    42    1
    49    13    43    1
    50    14    44    1
    51    14    45    1
    52    15    46    1
    53    17    47    1
    54    17    48    1
    55    18    49    1
    56    19    50    1
    57    21    51    1
    58    22    52    1
    59    22    53    1
    60    23    54    1
    61    23    55    1
    62    24    56    1
    63    26    57    1
    64    29    58    1
    65    30    59    1
    66    32    60    1
    67    33    61    1
@<TRIPOS>MOLECULE
132427686
 61 67 0 0 0
SMALL
GASTEIGER

@<TRIPOS>ATOM
      1 I         110.8853  152.7983  145.1539 I       1  UNL111     -0.0743
      2 O         119.9665  154.7158  147.8766 O.2     1  UNL111     -0.5466
      3 O         120.8287  157.5113  147.7759 O.2     1  UNL111     -0.5485
      4 O         116.1052  154.7757  145.7878 O.2     1  UNL111     -0.3690
      5 N         123.4837  151.3401  146.1630 N.4     1  UNL111      0.4285
      6 N         117.3814  152.9933  146.4708 N.am    1  UNL111     -0.2985
      7 C         121.0949  152.9006  146.7594 C.3     1  UNL111      0.0512
      8 C         121.1476  151.9689  145.5446 C.3     1  UNL111     -0.0033
      9 C         122.6250  151.9795  145.0406 C.3     1  UNL111     -0.0198
     10 C         119.7152  153.4061  147.2360 C.3     1  UNL111      0.0844
     11 C         121.9327  152.2798  147.8986 C.3     1  UNL111     -0.0261
     12 C         121.6670  154.2353  146.4287 C.3     1  UNL111      0.0227
     13 C         123.3915  152.0402  147.5030 C.3     1  UNL111     -0.0355
     14 C         123.1452  153.3923  144.6241 C.3     1  UNL111     -0.0211
     15 C         118.6548  153.5993  146.1031 C.3     1  UNL111      0.0548
     16 C         122.6630  154.5059  145.5101 C.3     1  UNL111     -0.0426
     17 C         124.9194  151.0873  145.7429 C.3     1  UNL111     -0.0392
     18 C         120.1222  152.2932  144.4981 C.2     1  UNL111     -0.0897
     19 C         125.6029  150.0242  146.5445 C.3     1  UNL111     -0.0508
     20 C         121.0240  155.2148  147.1553 C.3     1  UNL111      0.1043
     21 C         119.0192  153.0072  144.7645 C.2     1  UNL111     -0.0749
     22 C         126.4076  150.3587  147.7768 C.3     1  UNL111     -0.0533
     23 C         127.1077  149.9222  146.5205 C.3     1  UNL111     -0.0533
     24 C         123.0753  155.8359  145.4002 C.3     1  UNL111     -0.0573
     25 C         121.4308  156.5229  147.0674 C.3     1  UNL111      0.0916
     26 C         122.4736  156.8366  146.1947 C.3     1  UNL111     -0.0140
     27 C         116.1861  153.6588  146.2822 C.2     1  UNL111      0.1832
     28 C         114.9542  152.9197  146.6643 C.3     1  UNL111      0.0463
     29 C         113.7869  153.1512  145.9265 C.3     1  UNL111     -0.0241
     30 C         114.9342  152.0306  147.7473 C.3     1  UNL111     -0.0481
     31 C         112.6155  152.4714  146.2576 C.3     1  UNL111     -0.0021
     32 C         113.7550  151.3574  148.0734 C.3     1  UNL111     -0.0739
     33 C         112.5963  151.5731  147.3253 C.3     1  UNL111     -0.0595
     34 H         120.0710  157.1111  148.2429 H       1  UNL111      0.3393
     35 H         123.0944  150.4000  146.3067 H       1  UNL111      0.1345
     36 H         117.3573  152.0160  146.7249 H       1  UNL111      0.1947
     37 H         120.9069  150.9444  145.8655 H       1  UNL111      0.0719
     38 H         122.7266  151.2956  144.1886 H       1  UNL111      0.0857
     39 H         119.3163  152.7478  148.0182 H       1  UNL111      0.1379
     40 H         121.4802  151.3232  148.1926 H       1  UNL111      0.0544
     41 H         121.9182  152.9092  148.7980 H       1  UNL111      0.0544
     42 H         123.9656  152.9698  147.4394 H       1  UNL111      0.0741
     43 H         123.8648  151.3907  148.2454 H       1  UNL111      0.0741
     44 H         122.7656  153.5997  143.6149 H       1  UNL111      0.0615
     45 H         124.2369  153.4139  144.5605 H       1  UNL111      0.0615
     46 H         118.4931  154.6731  145.9481 H       1  UNL111      0.1061
     47 H         125.4529  152.0424  145.7990 H       1  UNL111      0.0743
     48 H         124.8898  150.7657  144.6961 H       1  UNL111      0.0743
     49 H         120.2547  151.9011  143.4903 H       1  UNL111      0.0805
     50 H         125.0663  149.0811  146.5229 H       1  UNL111      0.0513
     51 H         118.3123  153.2086  143.9577 H       1  UNL111      0.0868
     52 H         126.3942  149.6602  148.6082 H       1  UNL111      0.0366
     53 H         126.5361  151.3926  148.0792 H       1  UNL111      0.0366
     54 H         127.6887  150.6645  145.9827 H       1  UNL111      0.0366
     55 H         127.5570  148.9333  146.5116 H       1  UNL111      0.0366
     56 H         123.8447  156.1269  144.6871 H       1  UNL111      0.0939
     57 H         122.7954  157.8719  146.0986 H       1  UNL111      0.1139
     58 H         113.8036  153.8594  145.1002 H       1  UNL111      0.1050
     59 H         115.8131  151.8784  148.3664 H       1  UNL111      0.0969
     60 H         113.7304  150.6738  148.9193 H       1  UNL111      0.0895
     61 H         111.6837  151.0449  147.5932 H       1  UNL111      0.0957
@<TRIPOS>UNITY_ATOM_ATTR
5 1
charge 1
@<TRIPOS>BOND
     1     1    31    1
     2     2    10    1
     3     2    20    1
     4     3    25    1
     5     4    27    2
     6     5     9    1
     7     5    13    1
     8     5    17    1
     9     6    15    1
    10     6    27   am
    11     7     8    1
    12     7    10    1
    13     7    11    1
    14     7    12    1
    15     8     9    1
    16     8    18    1
    17     9    14    1
    18    10    15    1
    19    11    13    1
    20    12    16   ar
    21    12    20   ar
    22    14    16    1
    23    15    21    1
    24    16    24   ar
    25    17    19    1
    26    18    21    2
    27    19    22    1
    28    19    23    1
    29    20    25   ar
    30    22    23    1
    31    24    26   ar
    32    25    26   ar
    33    27    28    1
    34    28    29   ar
    35    28    30   ar
    36    29    31   ar
    37    30    32   ar
    38    31    33   ar
    39    32    33   ar
    40     3    34    1
    41     5    35    1
    42     6    36    1
    43     8    37    1
    44     9    38    1
    45    10    39    1
    46    11    40    1
    47    11    41    1
    48    13    42    1
    49    13    43    1
    50    14    44    1
    51    14    45    1
    52    15    46    1
    53    17    47    1
    54    17    48    1
    55    18    49    1
    56    19    50    1
    57    21    51    1
    58    22    52    1
    59    22    53    1
    60    23    54    1
    61    23    55    1
    62    24    56    1
    63    26    57    1
    64    29    58    1
    65    30    59    1
    66    32    60    1
    67    33    61    1
