@<TRIPOS>MOLECULE
5463872
 55 60 0 0 0
SMALL
GASTEIGER

@<TRIPOS>ATOM
      1 O         119.8509  153.5123  147.8654 O.2     1  UNL111     -0.5393
      2 O         118.1760  152.1301  146.4366 O.3     1  UNL111     -0.4921
      3 O         119.1617  156.1347  147.0803 O.2     1  UNL111     -0.5684
      4 O         116.8326  150.3037  146.7685 O.2     1  UNL111     -0.3202
      5 N         124.6250  151.8588  146.7109 N.4     1  UNL111      0.4275
      6 N         115.0355  154.7100  146.1898 N.pl3   1  UNL111     -0.3003
      7 C         121.7785  152.2556  147.1406 C.3     1  UNL111      0.0568
      8 C         122.2874  151.2145  146.1351 C.3     1  UNL111     -0.0012
      9 C         123.6154  151.7777  145.5402 C.3     1  UNL111     -0.0204
     10 C         120.3198  152.1392  147.6364 C.3     1  UNL111      0.1050
     11 C         122.7806  152.3916  148.3078 C.3     1  UNL111     -0.0252
     12 C         121.6446  153.5773  146.4593 C.3     1  UNL111      0.0243
     13 C         123.4473  153.1432  144.8025 C.3     1  UNL111     -0.0213
     14 C         124.1908  152.7562  147.8485 C.3     1  UNL111     -0.0363
     15 C         122.4275  154.0551  145.4262 C.3     1  UNL111     -0.0424
     16 C         119.3546  151.3480  146.6971 C.3     1  UNL111      0.1138
     17 C         121.2526  150.8479  145.1075 C.2     1  UNL111     -0.0822
     18 C         120.5564  154.2657  146.9570 C.3     1  UNL111      0.1071
     19 C         119.9397  150.9221  145.3718 C.2     1  UNL111     -0.0491
     20 C         126.0389  152.1488  146.2787 C.3     1  UNL111     -0.0442
     21 C         122.1326  155.3336  144.9534 C.3     1  UNL111     -0.0571
     22 C         120.2447  155.5362  146.5112 C.3     1  UNL111      0.0928
     23 C         121.0613  156.0742  145.5057 C.3     1  UNL111     -0.0130
     24 C         116.9877  151.4961  146.5565 C.2     1  UNL111      0.2703
     25 C         118.7592  157.3908  146.5486 C.3     1  UNL111      0.0331
     26 C         115.8693  152.4430  146.3686 C.3     1  UNL111      0.0999
     27 C         114.5699  151.9504  146.2193 C.3     1  UNL111     -0.0263
     28 C         116.0478  153.8208  146.3535 C.3     1  UNL111      0.0209
     29 C         113.5122  152.8418  146.0543 C.3     1  UNL111     -0.0510
     30 C         113.7920  154.1992  146.0463 C.3     1  UNL111     -0.0230
     31 H         124.6709  150.9079  147.1029 H       1  UNL111      0.1328
     32 H         122.5207  150.2794  146.6651 H       1  UNL111      0.0721
     33 H         124.0509  151.0467  144.8476 H       1  UNL111      0.0854
     34 H         120.2969  151.6457  148.6169 H       1  UNL111      0.1477
     35 H         122.8194  151.4391  148.8531 H       1  UNL111      0.0545
     36 H         122.4483  153.1448  149.0341 H       1  UNL111      0.0545
     37 H         123.0994  152.9252  143.7841 H       1  UNL111      0.0615
     38 H         124.4020  153.6675  144.7040 H       1  UNL111      0.0615
     39 H         124.2681  153.7941  147.5097 H       1  UNL111      0.0738
     40 H         124.9045  152.6069  148.6662 H       1  UNL111      0.0738
     41 H         119.0969  150.4220  147.2284 H       1  UNL111      0.1535
     42 H         121.5706  150.4632  144.1399 H       1  UNL111      0.0821
     43 H         119.2257  150.6016  144.6137 H       1  UNL111      0.0975
     44 H         126.1169  153.1959  145.9793 H       1  UNL111      0.0667
     45 H         126.2878  151.4784  145.4524 H       1  UNL111      0.0667
     46 H         126.6939  151.9466  147.1306 H       1  UNL111      0.0667
     47 H         122.7026  155.7698  144.1346 H       1  UNL111      0.0939
     48 H         120.8720  157.0647  145.0999 H       1  UNL111      0.1142
     49 H         117.8584  157.7079  147.0826 H       1  UNL111      0.1074
     50 H         118.5065  157.3082  145.4862 H       1  UNL111      0.1074
     51 H         119.5300  158.1511  146.7127 H       1  UNL111      0.1074
     52 H         114.3781  150.8797  146.2327 H       1  UNL111      0.1017
     53 H         117.0258  154.2772  146.4839 H       1  UNL111      0.1456
     54 H         112.4940  152.4860  145.9374 H       1  UNL111      0.0990
     55 H         112.9996  154.9329  145.9234 H       1  UNL111      0.1342
@<TRIPOS>UNITY_ATOM_ATTR
5 1
charge 1
@<TRIPOS>BOND
     1     1    10    1
     2     1    18    1
     3     2    16    1
     4     2    24    1
     5     3    22    1
     6     3    25    1
     7     4    24    2
     8     5     9    1
     9     5    14    1
    10     5    20    1
    11     6    28   ar
    12     6    30   ar
    13     7     8    1
    14     7    10    1
    15     7    11    1
    16     7    12    1
    17     8     9    1
    18     8    17    1
    19     9    13    1
    20    10    16    1
    21    11    14    1
    22    12    15   ar
    23    12    18   ar
    24    13    15    1
    25    15    21   ar
    26    16    19    1
    27    17    19    2
    28    18    22   ar
    29    21    23   ar
    30    22    23   ar
    31    24    26    1
    32    26    27   ar
    33    26    28   ar
    34    27    29   ar
    35    29    30   ar
    36     5    31    1
    37     8    32    1
    38     9    33    1
    39    10    34    1
    40    11    35    1
    41    11    36    1
    42    13    37    1
    43    13    38    1
    44    14    39    1
    45    14    40    1
    46    16    41    1
    47    17    42    1
    48    19    43    1
    49    20    44    1
    50    20    45    1
    51    20    46    1
    52    21    47    1
    53    23    48    1
    54    25    49    1
    55    25    50    1
    56    25    51    1
    57    27    52    1
    58    28    53    1
    59    29    54    1
    60    30    55    1
