@<TRIPOS>MOLECULE
5362460
 63 69 0 0 0
SMALL
GASTEIGER

@<TRIPOS>ATOM
      1 O         120.4986  153.3461  147.7021 O.2     1  UNL111     -0.5384
      2 O         119.4180  151.1511  146.7580 O.3     1  UNL111     -0.4921
      3 O         119.0584  155.5809  146.5216 O.3     1  UNL111     -0.4456
      4 O         119.1628  148.8826  146.5484 O.2     1  UNL111     -0.3202
      5 O         118.4407  154.2338  144.7143 O.2     1  UNL111     -0.3170
      6 N         125.6572  153.1139  146.8634 N.4     1  UNL111      0.4275
      7 N         115.0148  149.4957  146.3073 N.pl3   1  UNL111     -0.3003
      8 N         115.1992  155.9741  147.7630 N.pl3   1  UNL111     -0.3003
      9 C         122.7966  152.7252  147.2009 C.3     1  UNL111      0.0569
     10 C         123.6078  151.8353  146.2446 C.3     1  UNL111     -0.0012
     11 C         124.7555  152.7222  145.6678 C.3     1  UNL111     -0.0204
     12 C         121.4192  152.1989  147.6787 C.3     1  UNL111      0.1051
     13 C         123.6765  153.1911  148.3784 C.3     1  UNL111     -0.0252
     14 C         122.3122  153.9141  146.4363 C.3     1  UNL111      0.0253
     15 C         124.2554  153.9694  144.8762 C.3     1  UNL111     -0.0213
     16 C         124.9501  153.9084  147.9368 C.3     1  UNL111     -0.0363
     17 C         122.9780  154.5625  145.4068 C.3     1  UNL111     -0.0422
     18 C         120.8449  151.0117  146.8484 C.3     1  UNL111      0.1138
     19 C         122.7305  151.1909  145.2015 C.2     1  UNL111     -0.0822
     20 C         121.0203  154.2252  146.7945 C.3     1  UNL111      0.1152
     21 C         121.4619  150.8483  145.4791 C.2     1  UNL111     -0.0491
     22 C         126.9604  153.7547  146.4592 C.3     1  UNL111     -0.0442
     23 C         122.3428  155.6602  144.8174 C.3     1  UNL111     -0.0561
     24 C         120.3723  155.2806  146.1916 C.3     1  UNL111      0.1350
     25 C         121.0493  156.0352  145.2271 C.3     1  UNL111     -0.0050
     26 C         118.7026  150.0063  146.6617 C.2     1  UNL111      0.2703
     27 C         118.1733  154.9279  145.6846 C.2     1  UNL111      0.2823
     28 C         117.2583  150.3052  146.7142 C.3     1  UNL111      0.0999
     29 C         116.7844  155.2165  146.0993 C.3     1  UNL111      0.1025
     30 C         116.7412  151.5018  147.2181 C.3     1  UNL111     -0.0263
     31 C         116.3615  149.3381  146.2825 C.3     1  UNL111      0.0209
     32 C         115.3604  151.6837  147.2644 C.3     1  UNL111     -0.0510
     33 C         115.7326  154.9428  145.2202 C.3     1  UNL111     -0.0259
     34 C         116.4669  155.7255  147.3511 C.3     1  UNL111      0.0213
     35 C         114.5458  150.6636  146.7989 C.3     1  UNL111     -0.0230
     36 C         114.4215  155.2030  145.6138 C.3     1  UNL111     -0.0510
     37 C         114.2065  155.7172  146.8821 C.3     1  UNL111     -0.0230
     38 H         125.9388  152.2257  147.3017 H       1  UNL111      0.1328
     39 H         124.0652  151.0096  146.8091 H       1  UNL111      0.0721
     40 H         125.4005  152.1173  145.0183 H       1  UNL111      0.0854
     41 H         121.4810  151.8601  148.7213 H       1  UNL111      0.1478
     42 H         123.9549  152.3144  148.9784 H       1  UNL111      0.0545
     43 H         123.1191  153.8572  149.0498 H       1  UNL111      0.0545
     44 H         124.0494  153.6408  143.8487 H       1  UNL111      0.0615
     45 H         125.0234  154.7450  144.8104 H       1  UNL111      0.0615
     46 H         124.7527  154.9104  147.5433 H       1  UNL111      0.0738
     47 H         125.6436  153.9998  148.7800 H       1  UNL111      0.0738
     48 H         121.0849  150.0952  147.4065 H       1  UNL111      0.1535
     49 H         123.1327  150.9671  144.2151 H       1  UNL111      0.0821
     50 H         120.8615  150.3504  144.7192 H       1  UNL111      0.0975
     51 H         126.7701  154.7722  146.1118 H       1  UNL111      0.0667
     52 H         127.4127  153.1438  145.6742 H       1  UNL111      0.0667
     53 H         127.6094  153.7687  147.3391 H       1  UNL111      0.0667
     54 H         122.8127  156.2048  144.0002 H       1  UNL111      0.0940
     55 H         120.5491  156.8696  144.7410 H       1  UNL111      0.1154
     56 H         117.3970  152.2841  147.5887 H       1  UNL111      0.1017
     57 H         116.7006  148.3810  145.8931 H       1  UNL111      0.1456
     58 H         114.9284  152.5967  147.6610 H       1  UNL111      0.0990
     59 H         115.9289  154.5314  144.2320 H       1  UNL111      0.1017
     60 H         117.2256  155.9495  148.0958 H       1  UNL111      0.1457
     61 H         113.4632  150.7582  146.8145 H       1  UNL111      0.1342
     62 H         113.5882  155.0085  144.9464 H       1  UNL111      0.0990
     63 H         113.2026  155.9396  147.2349 H       1  UNL111      0.1342
@<TRIPOS>UNITY_ATOM_ATTR
6 1
charge 1
@<TRIPOS>BOND
     1     1    12    1
     2     1    20    1
     3     2    18    1
     4     2    26    1
     5     3    24    1
     6     3    27    1
     7     4    26    2
     8     5    27    2
     9     6    11    1
    10     6    16    1
    11     6    22    1
    12     7    31   ar
    13     7    35   ar
    14     8    34   ar
    15     8    37   ar
    16     9    10    1
    17     9    12    1
    18     9    13    1
    19     9    14    1
    20    10    11    1
    21    10    19    1
    22    11    15    1
    23    12    18    1
    24    13    16    1
    25    14    17   ar
    26    14    20   ar
    27    15    17    1
    28    17    23   ar
    29    18    21    1
    30    19    21    2
    31    20    24   ar
    32    23    25   ar
    33    24    25   ar
    34    26    28    1
    35    27    29    1
    36    28    30   ar
    37    28    31   ar
    38    29    33   ar
    39    29    34   ar
    40    30    32   ar
    41    32    35   ar
    42    33    36   ar
    43    36    37   ar
    44     6    38    1
    45    10    39    1
    46    11    40    1
    47    12    41    1
    48    13    42    1
    49    13    43    1
    50    15    44    1
    51    15    45    1
    52    16    46    1
    53    16    47    1
    54    18    48    1
    55    19    49    1
    56    21    50    1
    57    22    51    1
    58    22    52    1
    59    22    53    1
    60    23    54    1
    61    25    55    1
    62    30    56    1
    63    31    57    1
    64    32    58    1
    65    33    59    1
    66    34    60    1
    67    35    61    1
    68    36    62    1
    69    37    63    1
