@<TRIPOS>MOLECULE
117065157
 22 23 0 0 0
SMALL
GASTEIGER

@<TRIPOS>ATOM
      1 O         118.5350  151.4592  146.8617 O.3     1  UNL111     -0.4742
      2 O         119.9657  151.6169  145.0841 O.2     1  UNL111     -0.3320
      3 N         116.4694  154.3372  146.8588 N.3     1  UNL111      0.4802
      4 C         119.5940  153.6007  146.4592 C.3     1  UNL111      0.1277
      5 C         119.0179  153.8965  147.9170 C.3     1  UNL111      0.0253
      6 C         118.8141  154.4283  145.3407 C.3     1  UNL111      0.0253
      7 C         117.5592  154.0856  147.7958 C.3     1  UNL111      0.0527
      8 C         117.3934  154.4757  145.7378 C.3     1  UNL111      0.0527
      9 C         121.1020  153.8900  146.4547 C.2     1  UNL111      0.0065
     10 C         119.4016  152.1189  146.0531 C.2     1  UNL111      0.2462
     11 C         121.7204  154.5606  145.3943 C.2     1  UNL111     -0.0030
     12 C         121.9133  153.4070  147.4906 C.2     1  UNL111     -0.0030
     13 C         123.0979  154.7705  145.3800 C.2     1  UNL111     -0.0016
     14 C         123.2912  153.6132  147.4828 C.2     1  UNL111     -0.0016
     15 C         123.8829  154.2974  146.4264 C.2     1  UNL111     -0.0006
     16 C         118.3214  150.1865  146.5488 C.3     1  UNL111      0.1948
     17 C         118.0491  148.7097  146.2424 C.3     1  UNL111      0.1149
     18 H         115.9924  155.2184  147.0625 H       1  UNL111      0.2033
     19 H         119.4551  154.8224  148.3114 H       1  UNL111      0.0716
     20 H         119.2545  153.0920  148.6218 H       1  UNL111      0.0716
     21 H         118.9290  153.9849  144.3456 H       1  UNL111      0.0716
     22 H         119.1882  155.4582  145.2966 H       1  UNL111      0.0716
@<TRIPOS>UNITY_ATOM_ATTR
3 1
charge 1
@<TRIPOS>BOND
     1     1    10    1
     2     1    16    1
     3     2    10    2
     4     3     7    1
     5     3     8    1
     6     4     5    1
     7     4     6    1
     8     4     9    1
     9     4    10    1
    10     5     7    1
    11     6     8    1
    12     9    11    2
    13     9    12    1
    14    11    13    1
    15    12    14    2
    16    13    15    2
    17    14    15    1
    18    16    17    1
    19     3    18    1
    20     5    19    1
    21     5    20    1
    22     6    21    1
    23     6    22    1
@<TRIPOS>MOLECULE
604364
 41 42 0 0 0
SMALL
GASTEIGER

@<TRIPOS>ATOM
      1 O         121.0587  151.0918  146.0783 O.3     1  UNL1111    -0.5258
      2 O         120.1362  151.3273  148.1600 O.2     1  UNL1111    -0.3344
      3 O         115.1700  154.2351  147.1072 O.2     1  UNL1111    -0.3867
      4 N         117.0435  153.0835  146.4298 N.am    1  UNL1111    -0.3321
      5 C         119.9781  153.1830  146.5512 C.3     1  UNL1111     0.1019
      6 C         119.0584  153.8745  147.6020 C.3     1  UNL1111    -0.0015
      7 C         119.1687  153.0387  145.2291 C.3     1  UNL1111    -0.0015
      8 C         117.6813  153.2207  147.7323 C.3     1  UNL1111     0.0014
      9 C         117.8208  152.3525  145.4382 C.3     1  UNL1111     0.0014
     10 C         121.2734  154.0166  146.3995 C.3     1  UNL1111    -0.0374
     11 C         120.3734  151.7718  147.0435 C.2     1  UNL1111     0.2308
     12 C         115.7829  153.6275  146.2292 C.2     1  UNL1111     0.1358
     13 C         122.0989  154.2298  147.5231 C.3     1  UNL1111    -0.0742
     14 C         121.6953  154.5589  145.1739 C.3     1  UNL1111    -0.0742
     15 C         123.2845  154.9620  147.4263 C.3     1  UNL1111    -0.0848
     16 C         122.8827  155.2922  145.0787 C.3     1  UNL1111    -0.0848
     17 C         115.1644  153.4583  144.8650 C.3     1  UNL1111     0.0288
     18 C         123.6757  155.4949  146.2034 C.3     1  UNL1111    -0.0866
     19 C         121.5548  149.8118  146.4878 C.3     1  UNL1111     0.0466
     20 C         122.4543  149.2828  145.3879 C.3     1  UNL1111    -0.0318
     21 H         118.9154  154.9254  147.3127 H       1  UNL1111     0.0531
     22 H         119.5219  153.8877  148.5959 H       1  UNL1111     0.0531
     23 H         119.7336  152.4823  144.4713 H       1  UNL1111     0.0531
     24 H         118.9709  154.0349  144.8097 H       1  UNL1111     0.0531
     25 H         117.7527  152.2185  148.1679 H       1  UNL1111     0.0729
     26 H         117.0658  153.8157  148.4150 H       1  UNL1111     0.0729
     27 H         117.2993  152.2870  144.4812 H       1  UNL1111     0.0729
     28 H         117.9478  151.3266  145.8022 H       1  UNL1111     0.0729
     29 H         121.8321  153.8185  148.4958 H       1  UNL1111     0.0905
     30 H         121.1214  154.4246  144.2616 H       1  UNL1111     0.0905
     31 H         123.9025  155.1124  148.3079 H       1  UNL1111     0.0877
     32 H         123.1887  155.7037  144.1199 H       1  UNL1111     0.0877
     33 H         114.1797  153.9355  144.8501 H       1  UNL1111     0.0681
     34 H         115.0338  152.3969  144.6386 H       1  UNL1111     0.0681
     35 H         115.7881  153.9380  144.1060 H       1  UNL1111     0.0681
     36 H         124.5980  156.0640  146.1259 H       1  UNL1111     0.0874
     37 H         120.7118  149.1297  146.6422 H       1  UNL1111     0.1149
     38 H         122.1289  149.9074  147.4164 H       1  UNL1111     0.1149
     39 H         121.9051  149.2031  144.4440 H       1  UNL1111     0.0426
     40 H         122.8539  148.2991  145.6495 H       1  UNL1111     0.0426
     41 H         123.2903  149.9683  145.2126 H       1  UNL1111     0.0426
@<TRIPOS>BOND
     1     1    11    1
     2     1    19    1
     3     2    11    2
     4     3    12    2
     5     4     8    1
     6     4     9    1
     7     4    12   am
     8     5     6    1
     9     5     7    1
    10     5    10    1
    11     5    11    1
    12     6     8    1
    13     7     9    1
    14    10    13   ar
    15    10    14   ar
    16    12    17    1
    17    13    15   ar
    18    14    16   ar
    19    15    18   ar
    20    16    18   ar
    21    19    20    1
    22     6    21    1
    23     6    22    1
    24     7    23    1
    25     7    24    1
    26     8    25    1
    27     8    26    1
    28     9    27    1
    29     9    28    1
    30    13    29    1
    31    14    30    1
    32    15    31    1
    33    16    32    1
    34    17    33    1
    35    17    34    1
    36    17    35    1
    37    18    36    1
    38    19    37    1
    39    19    38    1
    40    20    39    1
    41    20    40    1
    42    20    41    1
@<TRIPOS>MOLECULE
32414
 37 38 0 0 0
SMALL
GASTEIGER

@<TRIPOS>ATOM
      1 O         119.5416  155.0033  146.2169 O.3     1  UNL111     -0.5255
      2 O         118.0149  154.1817  147.7126 O.2     1  UNL111     -0.3339
      3 N         116.7535  151.2224  145.9563 N.4     1  UNL111      0.4319
      4 C         119.3196  152.6162  146.3732 C.3     1  UNL111      0.1028
      5 C         118.6495  152.4286  144.9848 C.3     1  UNL111     -0.0116
      6 C         118.7816  151.5112  147.3329 C.3     1  UNL111     -0.0116
      7 C         117.1315  152.3510  145.0640 C.3     1  UNL111     -0.0305
      8 C         117.2652  151.3566  147.3468 C.3     1  UNL111     -0.0305
      9 C         120.8600  152.5138  146.3448 C.3     1  UNL111     -0.0352
     10 C         118.8994  154.0099  146.8831 C.2     1  UNL111      0.2332
     11 C         121.5895  152.6672  147.5429 C.3     1  UNL111     -0.0738
     12 C         121.5914  152.2905  145.1656 C.3     1  UNL111     -0.0738
     13 C         122.9835  152.5804  147.5615 C.3     1  UNL111     -0.0848
     14 C         122.9874  152.2041  145.1874 C.3     1  UNL111     -0.0848
     15 C         123.6821  152.3453  146.3836 C.3     1  UNL111     -0.0866
     16 C         119.2180  156.3330  146.6480 C.3     1  UNL111      0.0467
     17 C         120.0290  157.3081  145.8180 C.3     1  UNL111     -0.0318
     18 H         117.0679  150.3280  145.5527 H       1  UNL111      0.1345
     19 H         115.7257  151.1572  145.9932 H       1  UNL111      0.1345
     20 H         119.0067  151.4999  144.5193 H       1  UNL111      0.0585
     21 H         118.9218  153.2466  144.3058 H       1  UNL111      0.0585
     22 H         119.1032  151.6954  148.3656 H       1  UNL111      0.0585
     23 H         119.2200  150.5447  147.0452 H       1  UNL111      0.0585
     24 H         116.6710  153.2613  145.4598 H       1  UNL111      0.0739
     25 H         116.6976  152.1347  144.0829 H       1  UNL111      0.0739
     26 H         116.9742  150.4434  147.8763 H       1  UNL111      0.0739
     27 H         116.7389  152.1950  147.8088 H       1  UNL111      0.0739
     28 H         121.0879  152.8701  148.4878 H       1  UNL111      0.0905
     29 H         121.1126  152.1890  144.1960 H       1  UNL111      0.0905
     30 H         123.5261  152.7037  148.4964 H       1  UNL111      0.0877
     31 H         123.5369  152.0333  144.2638 H       1  UNL111      0.0877
     32 H         124.7677  152.2819  146.3958 H       1  UNL111      0.0874
     33 H         119.4684  156.4462  147.7085 H       1  UNL111      0.1149
     34 H         118.1485  156.5179  146.4993 H       1  UNL111      0.1149
     35 H         121.1007  157.1174  145.9369 H       1  UNL111      0.0426
     36 H         119.8179  158.3400  146.1120 H       1  UNL111      0.0426
     37 H         119.8014  157.1897  144.7534 H       1  UNL111      0.0426
@<TRIPOS>UNITY_ATOM_ATTR
3 1
charge 1
@<TRIPOS>BOND
     1     1    10    1
     2     1    16    1
     3     2    10    2
     4     3     7    1
     5     3     8    1
     6     4     5    1
     7     4     6    1
     8     4     9    1
     9     4    10    1
    10     5     7    1
    11     6     8    1
    12     9    11   ar
    13     9    12   ar
    14    11    13   ar
    15    12    14   ar
    16    13    15   ar
    17    14    15   ar
    18    16    17    1
    19     3    18    1
    20     3    19    1
    21     5    20    1
    22     5    21    1
    23     6    22    1
    24     6    23    1
    25     7    24    1
    26     7    25    1
    27     8    26    1
    28     8    27    1
    29    11    28    1
    30    12    29    1
    31    13    30    1
    32    14    31    1
    33    15    32    1
    34    16    33    1
    35    16    34    1
    36    17    35    1
    37    17    36    1
    38    17    37    1
