@<TRIPOS>MOLECULE
18804
 52 53 0 0 0
SMALL
GASTEIGER

@<TRIPOS>ATOM
      1 O         120.0376  151.8672  145.5601 O.3     1  UNL111     -0.5059
      2 O         120.6381  150.4084  147.2306 O.2     1  UNL111     -0.3399
      3 N         119.4538  156.7431  145.2702 N.4     1  UNL111      0.4313
      4 C         120.2194  153.0689  146.3772 C.3     1  UNL111      0.0950
      5 C         119.8533  154.2815  145.4113 C.3     1  UNL111     -0.0039
      6 C         119.2098  153.0291  147.5958 C.3     1  UNL111      0.0141
      7 C         120.1008  155.6487  146.0710 C.3     1  UNL111     -0.0251
      8 C         121.7055  153.1921  146.7937 C.3     1  UNL111     -0.0247
      9 C         120.5272  154.2192  144.0243 C.3     1  UNL111     -0.0486
     10 C         117.7299  153.0869  147.2556 C.3     1  UNL111     -0.0663
     11 C         122.1062  153.6888  148.0477 C.3     1  UNL111     -0.0671
     12 C         122.7277  152.8112  145.8991 C.3     1  UNL111     -0.0671
     13 C         120.2996  150.6322  146.0807 C.2     1  UNL111      0.2169
     14 C         116.9780  154.2392  147.5409 C.3     1  UNL111     -0.0805
     15 C         117.0769  151.9877  146.6836 C.3     1  UNL111     -0.0805
     16 C         123.4596  153.8183  148.3791 C.3     1  UNL111     -0.0831
     17 C         124.0786  152.9418  146.2302 C.3     1  UNL111     -0.0831
     18 C         119.5623  158.0928  145.8887 C.3     1  UNL111     -0.0417
     19 C         120.0960  149.5915  145.0055 C.3     1  UNL111      0.0573
     20 C         124.4444  153.4505  147.4697 C.3     1  UNL111     -0.0862
     21 C         115.6197  154.3010  147.2224 C.3     1  UNL111     -0.0857
     22 C         115.7192  152.0510  146.3658 C.3     1  UNL111     -0.0857
     23 C         114.9928  153.2092  146.6279 C.3     1  UNL111     -0.0868
     24 C         120.2884  148.1814  145.5339 C.3     1  UNL111     -0.0381
     25 H         118.4588  156.5201  145.1224 H       1  UNL111      0.1334
     26 H         119.8767  156.7859  144.3334 H       1  UNL111      0.1334
     27 H         118.7840  154.1955  145.1791 H       1  UNL111      0.0725
     28 H         119.4039  153.8692  148.2711 H       1  UNL111      0.0688
     29 H         119.3674  152.1390  148.2146 H       1  UNL111      0.0688
     30 H         119.6658  155.7118  147.0706 H       1  UNL111      0.0767
     31 H         121.1667  155.8933  146.1240 H       1  UNL111      0.0767
     32 H         121.5775  154.5218  144.0661 H       1  UNL111      0.0330
     33 H         120.0264  154.8937  143.3213 H       1  UNL111      0.0330
     34 H         120.4675  153.2202  143.5826 H       1  UNL111      0.0330
     35 H         121.3932  153.9654  148.8184 H       1  UNL111      0.0926
     36 H         122.4880  152.3837  144.9270 H       1  UNL111      0.0926
     37 H         117.4291  155.0887  148.0467 H       1  UNL111      0.0893
     38 H         117.6047  151.0555  146.5029 H       1  UNL111      0.0893
     39 H         123.7468  154.1861  149.3623 H       1  UNL111      0.0879
     40 H         124.8458  152.6268  145.5261 H       1  UNL111      0.0879
     41 H         119.0545  158.0692  146.8557 H       1  UNL111      0.0661
     42 H         119.0739  158.8006  145.2155 H       1  UNL111      0.0661
     43 H         120.6217  158.3356  145.9993 H       1  UNL111      0.0661
     44 H         120.8132  149.7818  144.2003 H       1  UNL111      0.0842
     45 H         119.0792  149.6931  144.6115 H       1  UNL111      0.0842
     46 H         125.4952  153.5354  147.7370 H       1  UNL111      0.0874
     47 H         115.0378  155.1875  147.4635 H       1  UNL111      0.0876
     48 H         115.2220  151.1853  145.9331 H       1  UNL111      0.0876
     49 H         113.9306  153.2465  146.3966 H       1  UNL111      0.0874
     50 H         121.3011  148.0436  145.9270 H       1  UNL111      0.0335
     51 H         120.1284  147.4502  144.7357 H       1  UNL111      0.0335
     52 H         119.5827  147.9656  146.3431 H       1  UNL111      0.0335
@<TRIPOS>UNITY_ATOM_ATTR
3 1
charge 1
@<TRIPOS>BOND
     1     1     4    1
     2     1    13    1
     3     2    13    2
     4     3     7    1
     5     3    18    1
     6     4     5    1
     7     4     6    1
     8     4     8    1
     9     5     7    1
    10     5     9    1
    11     6    10    1
    12     8    11   ar
    13     8    12   ar
    14    10    14   ar
    15    10    15   ar
    16    11    16   ar
    17    12    17   ar
    18    13    19    1
    19    14    21   ar
    20    15    22   ar
    21    16    20   ar
    22    17    20   ar
    23    19    24    1
    24    21    23   ar
    25    22    23   ar
    26     3    25    1
    27     3    26    1
    28     5    27    1
    29     6    28    1
    30     6    29    1
    31     7    30    1
    32     7    31    1
    33     9    32    1
    34     9    33    1
    35     9    34    1
    36    11    35    1
    37    12    36    1
    38    14    37    1
    39    15    38    1
    40    16    39    1
    41    17    40    1
    42    18    41    1
    43    18    42    1
    44    18    43    1
    45    19    44    1
    46    19    45    1
    47    20    46    1
    48    21    47    1
    49    22    48    1
    50    23    49    1
    51    24    50    1
    52    24    51    1
    53    24    52    1
@<TRIPOS>MOLECULE
170672
 44 45 0 0 0
SMALL
GASTEIGER

@<TRIPOS>ATOM
      1 O         119.0475  153.6879  144.9186 O.3     1  UNL111     -0.4378
      2 N         115.2698  153.9835  146.7694 N.4     1  UNL111      0.4309
      3 C         119.0594  153.1444  146.2488 C.3     1  UNL111      0.0452
      4 C         117.5384  152.9010  146.6032 C.3     1  UNL111     -0.0183
      5 C         119.7073  154.2226  147.1860 C.3     1  UNL111     -0.0004
      6 C         116.7168  154.1962  146.4213 C.3     1  UNL111     -0.0287
      7 C         119.8378  151.8218  146.3140 C.ar    1  UNL111     -0.0422
      8 C         116.9229  151.7727  145.7444 C.3     1  UNL111     -0.0521
      9 C         121.1362  154.6067  146.8505 C.ar    1  UNL111     -0.0704
     10 C         120.0030  151.1515  147.5428 C.ar    1  UNL111     -0.0717
     11 C         120.3763  151.2181  145.1634 C.ar    1  UNL111     -0.0717
     12 C         122.2184  153.9490  147.4499 C.ar    1  UNL111     -0.0813
     13 C         121.3967  155.6328  145.9285 C.ar    1  UNL111     -0.0813
     14 C         120.6990  149.9428  147.6195 C.ar    1  UNL111     -0.0839
     15 C         121.0722  150.0088  145.2430 C.ar    1  UNL111     -0.0839
     16 C         114.4641  155.2353  146.7974 C.3     1  UNL111     -0.0418
     17 C         121.2360  149.3737  146.4698 C.ar    1  UNL111     -0.0864
     18 C         123.5298  154.2990  147.1240 C.ar    1  UNL111     -0.0858
     19 C         122.7088  155.9818  145.6055 C.ar    1  UNL111     -0.0858
     20 C         123.7749  155.3133  146.2018 C.ar    1  UNL111     -0.0868
     21 H         119.9823  153.7576  144.6377 H       1  UNL111      0.2422
     22 H         115.1903  153.5102  147.6791 H       1  UNL111      0.1333
     23 H         114.8445  153.3518  146.0775 H       1  UNL111      0.1333
     24 H         117.4658  152.5893  147.6538 H       1  UNL111      0.0666
     25 H         119.6576  153.9072  148.2359 H       1  UNL111      0.0629
     26 H         119.1345  155.1556  147.1353 H       1  UNL111      0.0629
     27 H         117.0638  154.9839  147.0939 H       1  UNL111      0.0757
     28 H         116.7344  154.5615  145.3894 H       1  UNL111      0.0757
     29 H         116.9028  152.0447  144.6839 H       1  UNL111      0.0321
     30 H         115.8988  151.5457  146.0562 H       1  UNL111      0.0321
     31 H         117.4725  150.8327  145.8448 H       1  UNL111      0.0321
     32 H         119.5994  151.5624  148.4651 H       1  UNL111      0.0916
     33 H         120.2577  151.6658  144.1796 H       1  UNL111      0.0916
     34 H         122.0590  153.1542  148.1746 H       1  UNL111      0.0892
     35 H         120.5815  156.1736  145.4527 H       1  UNL111      0.0892
     36 H         120.8261  149.4441  148.5777 H       1  UNL111      0.0878
     37 H         121.4869  149.5606  144.3426 H       1  UNL111      0.0878
     38 H         114.8711  155.8887  147.5725 H       1  UNL111      0.0661
     39 H         113.4351  154.9553  147.0332 H       1  UNL111      0.0661
     40 H         114.5196  155.7017  145.8110 H       1  UNL111      0.0661
     41 H         121.7808  148.4344  146.5280 H       1  UNL111      0.0874
     42 H         124.3629  153.7787  147.5910 H       1  UNL111      0.0876
     43 H         122.9030  156.7780  144.8906 H       1  UNL111      0.0876
     44 H         124.7977  155.5846  145.9514 H       1  UNL111      0.0874
@<TRIPOS>UNITY_ATOM_ATTR
2 1
charge 1
@<TRIPOS>BOND
     1     1     3    1
     2     2     6    1
     3     2    16    1
     4     3     4    1
     5     3     5    1
     6     3     7    1
     7     4     6    1
     8     4     8    1
     9     5     9    1
    10     7    10   ar
    11     7    11   ar
    12     9    12   ar
    13     9    13   ar
    14    10    14   ar
    15    11    15   ar
    16    12    18   ar
    17    13    19   ar
    18    14    17   ar
    19    15    17   ar
    20    18    20   ar
    21    19    20   ar
    22     1    21    1
    23     2    22    1
    24     2    23    1
    25     4    24    1
    26     5    25    1
    27     5    26    1
    28     6    27    1
    29     6    28    1
    30     8    29    1
    31     8    30    1
    32     8    31    1
    33    10    32    1
    34    11    33    1
    35    12    34    1
    36    13    35    1
    37    14    36    1
    38    15    37    1
    39    16    38    1
    40    16    39    1
    41    16    40    1
    42    17    41    1
    43    18    42    1
    44    19    43    1
    45    20    44    1
@<TRIPOS>MOLECULE
3084563
 52 53 0 0 0
SMALL
GASTEIGER

@<TRIPOS>ATOM
      1 O         119.8995  153.6902  145.4512 O.3     1  UNL111     -0.5059
      2 O         120.0720  155.8111  146.3238 O.2     1  UNL111     -0.3399
      3 N         120.6483  149.7264  144.6413 N.4     1  UNL111      0.4313
      4 C         120.1723  153.0074  146.7245 C.3     1  UNL111      0.0950
      5 C         120.0812  151.4641  146.3553 C.3     1  UNL111     -0.0039
      6 C         119.0617  153.4005  147.7772 C.3     1  UNL111      0.0141
      7 C         120.9890  151.0964  145.1619 C.3     1  UNL111     -0.0251
      8 C         121.6118  153.3175  147.1990 C.3     1  UNL111     -0.0247
      9 C         120.3417  150.5135  147.5364 C.3     1  UNL111     -0.0486
     10 C         117.6213  153.1560  147.3600 C.3     1  UNL111     -0.0663
     11 C         121.9790  153.2252  148.5540 C.3     1  UNL111     -0.0671
     12 C         122.6230  153.6730  146.2813 C.3     1  UNL111     -0.0671
     13 C         119.8713  155.0555  145.3886 C.2     1  UNL111      0.2169
     14 C         116.9005  154.1376  146.6659 C.3     1  UNL111     -0.0805
     15 C         116.9683  151.9592  147.6939 C.3     1  UNL111     -0.0805
     16 C         123.2911  153.4717  148.9702 C.3     1  UNL111     -0.0831
     17 C         123.9334  153.9214  146.6987 C.3     1  UNL111     -0.0831
     18 C         121.4075  149.3391  143.4208 C.3     1  UNL111     -0.0417
     19 C         119.5537  155.4774  143.9739 C.3     1  UNL111      0.0573
     20 C         124.2675  153.8180  148.0434 C.3     1  UNL111     -0.0862
     21 C         115.5799  153.9106  146.2736 C.3     1  UNL111     -0.0857
     22 C         115.6469  151.7333  147.3027 C.3     1  UNL111     -0.0857
     23 C         114.9559  152.7057  146.5851 C.3     1  UNL111     -0.0868
     24 C         119.5015  156.9878  143.8287 C.3     1  UNL111     -0.0381
     25 H         119.6408  149.6794  144.4339 H       1  UNL111      0.1334
     26 H         120.8261  149.0209  145.3678 H       1  UNL111      0.1334
     27 H         119.0568  151.2808  146.0064 H       1  UNL111      0.0725
     28 H         119.1530  154.4577  148.0540 H       1  UNL111      0.0688
     29 H         119.2150  152.8709  148.7239 H       1  UNL111      0.0688
     30 H         120.8525  151.7779  144.3172 H       1  UNL111      0.0767
     31 H         122.0464  151.0608  145.4407 H       1  UNL111      0.0767
     32 H         121.4076  150.4570  147.7800 H       1  UNL111      0.0330
     33 H         120.0072  149.4983  147.2988 H       1  UNL111      0.0330
     34 H         119.8053  150.8087  148.4401 H       1  UNL111      0.0330
     35 H         121.2598  152.9642  149.3262 H       1  UNL111      0.0926
     36 H         122.4083  153.7874  145.2217 H       1  UNL111      0.0926
     37 H         117.3450  155.1070  146.4523 H       1  UNL111      0.0893
     38 H         117.4690  151.1975  148.2856 H       1  UNL111      0.0893
     39 H         123.5476  153.4065  150.0257 H       1  UNL111      0.0879
     40 H         124.6918  154.2159  145.9766 H       1  UNL111      0.0879
     41 H         121.1699  150.0514  142.6273 H       1  UNL111      0.0661
     42 H         121.0860  148.3331  143.1423 H       1  UNL111      0.0661
     43 H         122.4730  149.3495  143.6617 H       1  UNL111      0.0661
     44 H         118.5840  155.0522  143.6948 H       1  UNL111      0.0842
     45 H         120.3268  155.0749  143.3109 H       1  UNL111      0.0842
     46 H         125.2830  154.0252  148.3731 H       1  UNL111      0.0874
     47 H         115.0290  154.6858  145.7456 H       1  UNL111      0.0876
     48 H         115.1457  150.8084  147.5783 H       1  UNL111      0.0876
     49 H         113.9213  152.5385  146.2951 H       1  UNL111      0.0874
     50 H         118.7335  157.4189  144.4795 H       1  UNL111      0.0335
     51 H         119.2694  157.2639  142.7956 H       1  UNL111      0.0335
     52 H         120.4611  157.4419  144.0973 H       1  UNL111      0.0335
@<TRIPOS>UNITY_ATOM_ATTR
3 1
charge 1
@<TRIPOS>BOND
     1     1     4    1
     2     1    13    1
     3     2    13    2
     4     3     7    1
     5     3    18    1
     6     4     5    1
     7     4     6    1
     8     4     8    1
     9     5     7    1
    10     5     9    1
    11     6    10    1
    12     8    11   ar
    13     8    12   ar
    14    10    14   ar
    15    10    15   ar
    16    11    16   ar
    17    12    17   ar
    18    13    19    1
    19    14    21   ar
    20    15    22   ar
    21    16    20   ar
    22    17    20   ar
    23    19    24    1
    24    21    23   ar
    25    22    23   ar
    26     3    25    1
    27     3    26    1
    28     5    27    1
    29     6    28    1
    30     6    29    1
    31     7    30    1
    32     7    31    1
    33     9    32    1
    34     9    33    1
    35     9    34    1
    36    11    35    1
    37    12    36    1
    38    14    37    1
    39    15    38    1
    40    16    39    1
    41    17    40    1
    42    18    41    1
    43    18    42    1
    44    18    43    1
    45    19    44    1
    46    19    45    1
    47    20    46    1
    48    21    47    1
    49    22    48    1
    50    23    49    1
    51    24    50    1
    52    24    51    1
    53    24    52    1
@<TRIPOS>MOLECULE
37888225
 52 53 0 0 0
SMALL
GASTEIGER

@<TRIPOS>ATOM
      1 O         120.0316  151.8666  145.5598 O.3     1  UNL111     -0.5059
      2 O         120.6313  150.4059  147.2290 O.2     1  UNL111     -0.3399
      3 N         119.4630  156.7443  145.2709 N.4     1  UNL111      0.4313
      4 C         120.2192  153.0677  146.3763 C.3     1  UNL111      0.0950
      5 C         119.8548  154.2815  145.4112 C.3     1  UNL111     -0.0039
      6 C         119.2124  153.0313  147.5973 C.3     1  UNL111      0.0141
      7 C         120.1084  155.6479  146.0702 C.3     1  UNL111     -0.0251
      8 C         121.7068  153.1861  146.7893 C.3     1  UNL111     -0.0247
      9 C         120.5253  154.2168  144.0226 C.3     1  UNL111     -0.0486
     10 C         117.7319  153.0940  147.2607 C.3     1  UNL111     -0.0663
     11 C         122.1120  153.6816  148.0422 C.3     1  UNL111     -0.0671
     12 C         122.7255  152.8017  145.8923 C.3     1  UNL111     -0.0671
     13 C         120.2907  150.6307  146.0798 C.2     1  UNL111      0.2169
     14 C         116.9845  154.2488  147.5478 C.3     1  UNL111     -0.0805
     15 C         117.0739  151.9971  146.6901 C.3     1  UNL111     -0.0805
     16 C         123.4667  153.8067  148.3704 C.3     1  UNL111     -0.0831
     17 C         124.0777  152.9278  146.2202 C.3     1  UNL111     -0.0831
     18 C         119.5773  158.0936  145.8890 C.3     1  UNL111     -0.0417
     19 C         120.0811  149.5906  145.0053 C.3     1  UNL111      0.0573
     20 C         124.4481  153.4355  147.4587 C.3     1  UNL111     -0.0862
     21 C         115.6257  154.3152  147.2325 C.3     1  UNL111     -0.0857
     22 C         115.7157  152.0649  146.3755 C.3     1  UNL111     -0.0857
     23 C         114.9938  153.2255  146.6394 C.3     1  UNL111     -0.0868
     24 C         120.2690  148.1799  145.5336 C.3     1  UNL111     -0.0381
     25 H         118.4669  156.5245  145.1255 H       1  UNL111      0.1334
     26 H         119.8838  156.7857  144.3331 H       1  UNL111      0.1334
     27 H         118.7847  154.1989  145.1815 H       1  UNL111      0.0725
     28 H         119.4109  153.8708  148.2721 H       1  UNL111      0.0688
     29 H         119.3685  152.1408  148.2158 H       1  UNL111      0.0688
     30 H         119.6760  155.7124  147.0708 H       1  UNL111      0.0767
     31 H         121.1752  155.8890  146.1207 H       1  UNL111      0.0767
     32 H         121.5767  154.5160  144.0619 H       1  UNL111      0.0330
     33 H         120.0251  154.8930  143.3207 H       1  UNL111      0.0330
     34 H         120.4613  153.2180  143.5812 H       1  UNL111      0.0330
     35 H         121.4018  153.9606  148.8146 H       1  UNL111      0.0926
     36 H         122.4822  152.3749  144.9208 H       1  UNL111      0.0926
     37 H         117.4397  155.0968  148.0526 H       1  UNL111      0.0893
     38 H         117.5982  151.0631  146.5081 H       1  UNL111      0.0893
     39 H         123.7574  154.1736  149.3529 H       1  UNL111      0.0879
     40 H         124.8422  152.6103  145.5144 H       1  UNL111      0.0879
     41 H         119.0718  158.0718  146.8572 H       1  UNL111      0.0661
     42 H         119.0895  158.8030  145.2169 H       1  UNL111      0.0661
     43 H         120.6378  158.3331  145.9970 H       1  UNL111      0.0661
     44 H         120.7975  149.7781  144.1986 H       1  UNL111      0.0842
     45 H         119.0639  149.6961  144.6132 H       1  UNL111      0.0842
     46 H         125.4998  153.5169  147.7236 H       1  UNL111      0.0874
     47 H         115.0473  155.2036  147.4750 H       1  UNL111      0.0876
     48 H         115.2146  151.2008  145.9439 H       1  UNL111      0.0876
     49 H         113.9312  153.2663  146.4106 H       1  UNL111      0.0874
     50 H         121.2820  148.0382  145.9247 H       1  UNL111      0.0335
     51 H         120.1047  147.4491  144.7358 H       1  UNL111      0.0335
     52 H         119.5642  147.9670  146.3442 H       1  UNL111      0.0335
@<TRIPOS>UNITY_ATOM_ATTR
3 1
charge 1
@<TRIPOS>BOND
     1     1     4    1
     2     1    13    1
     3     2    13    2
     4     3     7    1
     5     3    18    1
     6     4     5    1
     7     4     6    1
     8     4     8    1
     9     5     7    1
    10     5     9    1
    11     6    10    1
    12     8    11   ar
    13     8    12   ar
    14    10    14   ar
    15    10    15   ar
    16    11    16   ar
    17    12    17   ar
    18    13    19    1
    19    14    21   ar
    20    15    22   ar
    21    16    20   ar
    22    17    20   ar
    23    19    24    1
    24    21    23   ar
    25    22    23   ar
    26     3    25    1
    27     3    26    1
    28     5    27    1
    29     6    28    1
    30     6    29    1
    31     7    30    1
    32     7    31    1
    33     9    32    1
    34     9    33    1
    35     9    34    1
    36    11    35    1
    37    12    36    1
    38    14    37    1
    39    15    38    1
    40    16    39    1
    41    17    40    1
    42    18    41    1
    43    18    42    1
    44    18    43    1
    45    19    44    1
    46    19    45    1
    47    20    46    1
    48    21    47    1
    49    22    48    1
    50    23    49    1
    51    24    50    1
    52    24    51    1
    53    24    52    1
@<TRIPOS>MOLECULE
12372434
 48 49 0 0 0
SMALL
GASTEIGER

@<TRIPOS>ATOM
      1 O         120.4473  151.7855  144.8228 O.3     1  UNL1111    -0.4391
      2 O         116.0599  153.5614  147.3966 O.2     1  UNL1111    -0.3867
      3 N         116.2422  152.0903  145.6420 N.am    1  UNL1111    -0.3272
      4 C         120.0933  152.3307  146.1091 C.3     1  UNL1111     0.0446
      5 C         118.6229  151.8372  146.3930 C.3     1  UNL1111    -0.0077
      6 C         121.0834  151.7974  147.2020 C.3     1  UNL1111    -0.0014
      7 C         117.6325  152.3925  145.3390 C.3     1  UNL1111     0.0022
      8 C         120.1760  153.8651  146.0456 C.3     1  UNL1111    -0.0433
      9 C         118.5019  150.3002  146.4264 C.3     1  UNL1111    -0.0528
     10 C         122.5487  152.1511  147.0175 C.3     1  UNL1111    -0.0706
     11 C         120.8495  154.5132  144.9947 C.3     1  UNL1111    -0.0719
     12 C         119.6116  154.6684  147.0547 C.3     1  UNL1111    -0.0719
     13 C         123.4005  151.3198  146.2753 C.3     1  UNL1111    -0.0813
     14 C         123.0779  153.3151  147.5929 C.3     1  UNL1111    -0.0813
     15 C         120.9453  155.9062  144.9473 C.3     1  UNL1111    -0.0839
     16 C         119.7039  156.0617  147.0039 C.3     1  UNL1111    -0.0839
     17 C         115.5509  152.7389  146.6436 C.2     1  UNL1111     0.1361
     18 C         120.3706  156.6802  145.9508 C.3     1  UNL1111    -0.0864
     19 C         124.7460  151.6522  146.1043 C.3     1  UNL1111    -0.0858
     20 C         124.4226  153.6469  147.4191 C.3     1  UNL1111    -0.0858
     21 C         114.1012  152.3031  146.7286 C.3     1  UNL1111     0.0305
     22 C         125.2562  152.8161  146.6745 C.3     1  UNL1111    -0.0868
     23 C         113.3121  153.1061  147.7464 C.3     1  UNL1111    -0.0450
     24 H         120.8941  150.9372  144.9693 H       1  UNL1111     0.2419
     25 H         115.7550  151.4311  145.0495 H       1  UNL1111     0.1846
     26 H         118.3164  152.1895  147.3854 H       1  UNL1111     0.0613
     27 H         121.0448  150.7023  147.2396 H       1  UNL1111     0.0626
     28 H         120.7636  152.1382  148.1961 H       1  UNL1111     0.0626
     29 H         117.7008  153.4809  145.2537 H       1  UNL1111     0.0735
     30 H         117.8387  151.9682  144.3500 H       1  UNL1111     0.0735
     31 H         118.8224  149.8475  145.4828 H       1  UNL1111     0.0306
     32 H         117.4677  149.9888  146.6083 H       1  UNL1111     0.0306
     33 H         119.0948  149.8671  147.2363 H       1  UNL1111     0.0306
     34 H         121.3179  153.9323  144.2027 H       1  UNL1111     0.0916
     35 H         119.0799  154.2231  147.8930 H       1  UNL1111     0.0916
     36 H         123.0289  150.4033  145.8256 H       1  UNL1111     0.0892
     37 H         122.4421  153.9825  148.1708 H       1  UNL1111     0.0892
     38 H         121.4718  156.3829  144.1251 H       1  UNL1111     0.0878
     39 H         119.2483  156.6616  147.7876 H       1  UNL1111     0.0878
     40 H         120.4415  157.7635  145.9118 H       1  UNL1111     0.0874
     41 H         125.3966  151.0029  145.5245 H       1  UNL1111     0.0876
     42 H         124.8158  154.5582  147.8616 H       1  UNL1111     0.0876
     43 H         114.0768  151.2406  146.9957 H       1  UNL1111     0.0728
     44 H         113.6431  152.4144  145.7393 H       1  UNL1111     0.0728
     45 H         126.3021  153.0769  146.5379 H       1  UNL1111     0.0874
     46 H         113.7349  152.9942  148.7502 H       1  UNL1111     0.0319
     47 H         112.2715  152.7688  147.7741 H       1  UNL1111     0.0319
     48 H         113.3202  154.1722  147.4962 H       1  UNL1111     0.0319
@<TRIPOS>BOND
     1     1     4    1
     2     2    17    2
     3     3     7    1
     4     3    17   am
     5     4     5    1
     6     4     6    1
     7     4     8    1
     8     5     7    1
     9     5     9    1
    10     6    10    1
    11     8    11   ar
    12     8    12   ar
    13    10    13   ar
    14    10    14   ar
    15    11    15   ar
    16    12    16   ar
    17    13    19   ar
    18    14    20   ar
    19    15    18   ar
    20    16    18   ar
    21    17    21    1
    22    19    22   ar
    23    20    22   ar
    24    21    23    1
    25     1    24    1
    26     3    25    1
    27     5    26    1
    28     6    27    1
    29     6    28    1
    30     7    29    1
    31     7    30    1
    32     9    31    1
    33     9    32    1
    34     9    33    1
    35    11    34    1
    36    12    35    1
    37    13    36    1
    38    14    37    1
    39    15    38    1
    40    16    39    1
    41    18    40    1
    42    19    41    1
    43    20    42    1
    44    21    43    1
    45    21    44    1
    46    22    45    1
    47    23    46    1
    48    23    47    1
    49    23    48    1
