@<TRIPOS>MOLECULE
66553195
 58 61 0 0 0
SMALL
GASTEIGER

@<TRIPOS>ATOM
      1 S         114.0537  155.1075  145.2258 S.2     1  UNL111     -0.1209
      2 O         123.8489  154.8654  145.8336 O.3     1  UNL111     -0.4593
      3 O         114.9661  152.1625  147.5349 O.3     1  UNL111     -0.5766
      4 N         121.1687  151.6219  144.8155 N.ar    1  UNL111     -0.3346
      5 N         117.4008  153.7637  146.2328 N.4     1  UNL111      0.4365
      6 C         123.7162  154.1370  147.0575 C.3     1  UNL111      0.0112
      7 C         121.2831  153.5360  146.3447 C.3     1  UNL111      0.0145
      8 C         122.2340  154.0549  147.4646 C.3     1  UNL111     -0.0141
      9 C         124.5303  154.8999  148.1161 C.3     1  UNL111     -0.0341
     10 C         124.4790  152.8070  147.0177 C.3     1  UNL111     -0.0341
     11 C         121.6152  154.3615  145.0679 C.3     1  UNL111     -0.0181
     12 C         125.9874  154.5381  147.8278 C.3     1  UNL111     -0.0539
     13 C         125.9498  153.2152  147.0671 C.3     1  UNL111     -0.0539
     14 C         119.8042  153.8138  146.7715 C.3     1  UNL111     -0.0360
     15 C         123.1018  154.3422  144.7433 C.3     1  UNL111      0.0066
     16 C         121.3916  152.0272  146.0912 C.ar    1  UNL111      0.0003
     17 C         118.7586  153.4000  145.7300 C.3     1  UNL111     -0.0328
     18 C         121.5792  151.1014  147.1181 C.ar    1  UNL111     -0.0511
     19 C         121.6231  149.7419  146.8139 C.ar    1  UNL111     -0.0708
     20 C         121.2422  150.2981  144.5413 C.ar    1  UNL111     -0.0127
     21 C         116.3002  153.4735  145.2633 C.3     1  UNL111      0.0144
     22 C         121.4641  149.3294  145.4995 C.ar    1  UNL111     -0.0571
     23 C         114.9767  153.8120  145.8541 C.ar    1  UNL111      0.0223
     24 C         114.3387  153.1911  146.9081 C.ar    1  UNL111      0.0607
     25 C         113.0736  153.7815  147.1931 C.ar    1  UNL111     -0.0115
     26 C         112.7940  154.8333  146.3466 C.ar    1  UNL111     -0.0253
     27 C         114.1301  151.4188  148.4217 C.3     1  UNL111      0.0308
     28 H         117.3522  154.7593  146.4808 H       1  UNL111      0.1383
     29 H         117.1845  153.2391  147.0927 H       1  UNL111      0.1383
     30 H         121.9142  155.0798  147.7073 H       1  UNL111      0.0531
     31 H         122.1204  153.4910  148.3969 H       1  UNL111      0.0531
     32 H         124.2678  154.5647  149.1272 H       1  UNL111      0.0462
     33 H         124.3838  155.9840  148.0635 H       1  UNL111      0.0462
     34 H         124.2909  152.2010  146.1286 H       1  UNL111      0.0462
     35 H         124.2460  152.2016  147.9020 H       1  UNL111      0.0462
     36 H         121.3214  155.4056  145.2439 H       1  UNL111      0.0505
     37 H         121.0545  154.0249  144.1894 H       1  UNL111      0.0505
     38 H         126.5632  154.4564  148.7554 H       1  UNL111      0.0342
     39 H         126.4640  155.3100  147.2130 H       1  UNL111      0.0342
     40 H         126.3389  153.3593  146.0522 H       1  UNL111      0.0342
     41 H         126.5636  152.4473  147.5483 H       1  UNL111      0.0342
     42 H         119.6863  154.8856  146.9821 H       1  UNL111      0.0518
     43 H         119.5901  153.2947  147.7161 H       1  UNL111      0.0518
     44 H         123.4577  153.3445  144.4711 H       1  UNL111      0.0891
     45 H         123.2916  154.9900  143.8808 H       1  UNL111      0.0891
     46 H         118.8929  153.9298  144.7834 H       1  UNL111      0.0736
     47 H         118.7394  152.3206  145.5607 H       1  UNL111      0.0736
     48 H         121.7039  151.4025  148.1525 H       1  UNL111      0.1002
     49 H         121.7941  149.0092  147.5992 H       1  UNL111      0.0906
     50 H         121.1136  150.0295  143.4959 H       1  UNL111      0.1371
     51 H         116.3522  152.4051  145.0249 H       1  UNL111      0.0945
     52 H         116.5143  154.0473  144.3553 H       1  UNL111      0.0945
     53 H         121.5150  148.2798  145.2299 H       1  UNL111      0.0980
     54 H         112.3872  153.4741  147.9729 H       1  UNL111      0.1157
     55 H         111.9083  155.4564  146.3362 H       1  UNL111      0.1129
     56 H         114.7103  150.5684  148.7922 H       1  UNL111      0.1070
     57 H         113.2509  151.0241  147.9007 H       1  UNL111      0.1070
     58 H         113.8368  152.0264  149.2841 H       1  UNL111      0.1070
@<TRIPOS>UNITY_ATOM_ATTR
5 1
charge 1
@<TRIPOS>BOND
     1     1    23   ar
     2     1    26   ar
     3     2     6    1
     4     2    15    1
     5     3    24    1
     6     3    27    1
     7     4    16   ar
     8     4    20   ar
     9     5    17    1
    10     5    21    1
    11     6     8    1
    12     6     9    1
    13     6    10    1
    14     7     8    1
    15     7    11    1
    16     7    14    1
    17     7    16    1
    18     9    12    1
    19    10    13    1
    20    11    15    1
    21    12    13    1
    22    14    17    1
    23    16    18   ar
    24    18    19   ar
    25    19    22   ar
    26    20    22   ar
    27    21    23    1
    28    23    24   ar
    29    24    25   ar
    30    25    26   ar
    31     5    28    1
    32     5    29    1
    33     8    30    1
    34     8    31    1
    35     9    32    1
    36     9    33    1
    37    10    34    1
    38    10    35    1
    39    11    36    1
    40    11    37    1
    41    12    38    1
    42    12    39    1
    43    13    40    1
    44    13    41    1
    45    14    42    1
    46    14    43    1
    47    15    44    1
    48    15    45    1
    49    17    46    1
    50    17    47    1
    51    18    48    1
    52    19    49    1
    53    20    50    1
    54    21    51    1
    55    21    52    1
    56    22    53    1
    57    25    54    1
    58    26    55    1
    59    27    56    1
    60    27    57    1
    61    27    58    1
@<TRIPOS>MOLECULE
154925832
 59 62 0 0 0
SMALL
GASTEIGER

@<TRIPOS>ATOM
      1 S         125.9242  154.6758  147.2559 S.2     1  UNL111     -0.1209
      2 O         116.3519  151.4293  145.3050 O.3     1  UNL111     -0.4575
      3 O         113.2720  151.2893  148.3558 O.3     1  UNL111     -0.4538
      4 O         125.0588  151.1390  145.9980 O.3     1  UNL111     -0.5766
      5 N         118.7658  155.0049  145.0324 N.ar    1  UNL111     -0.3346
      6 N         122.6056  153.0639  146.5088 N.4     1  UNL111      0.4365
      7 C         116.3155  151.9666  146.6309 C.3     1  UNL111      0.0197
      8 C         118.7273  152.8753  146.2477 C.3     1  UNL111      0.0147
      9 C         117.7462  152.1071  147.1827 C.3     1  UNL111     -0.0125
     10 C         115.4995  150.9802  147.4817 C.3     1  UNL111     -0.0088
     11 C         115.4376  153.2211  146.7166 C.3     1  UNL111     -0.0255
     12 C         114.0362  151.2924  147.1579 C.3     1  UNL111      0.0112
     13 C         114.0179  152.6887  146.5387 C.3     1  UNL111     -0.0283
     14 C         118.5843  152.2316  144.8386 C.3     1  UNL111     -0.0180
     15 C         120.1876  152.6650  146.7673 C.3     1  UNL111     -0.0360
     16 C         117.1338  152.1755  144.3798 C.3     1  UNL111      0.0069
     17 C         118.4856  154.3896  146.2090 C.ar    1  UNL111      0.0003
     18 C         121.2637  153.3614  145.9265 C.3     1  UNL111     -0.0328
     19 C         118.1245  155.1257  147.3380 C.ar    1  UNL111     -0.0511
     20 C         117.9666  156.5065  147.2323 C.ar    1  UNL111     -0.0708
     21 C         118.5799  156.3435  144.9484 C.ar    1  UNL111     -0.0127
     22 C         123.7323  153.7618  145.8159 C.3     1  UNL111      0.0144
     23 C         118.1861  157.1293  146.0128 C.ar    1  UNL111     -0.0571
     24 C         125.0304  153.4457  146.4720 C.ar    1  UNL111      0.0223
     25 C         125.6649  152.2231  146.5477 C.ar    1  UNL111      0.0607
     26 C         126.9027  152.3030  147.2494 C.ar    1  UNL111     -0.0115
     27 C         127.1661  153.5844  147.6848 C.ar    1  UNL111     -0.0253
     28 C         125.8963  149.9868  145.8987 C.3     1  UNL111      0.0308
     29 H         113.1455  150.3603  148.6169 H       1  UNL111      0.2353
     30 H         122.8095  152.0547  146.4699 H       1  UNL111      0.1383
     31 H         122.6369  153.3262  147.5013 H       1  UNL111      0.1383
     32 H         118.1449  151.0878  147.2984 H       1  UNL111      0.0533
     33 H         117.7293  152.5254  148.1951 H       1  UNL111      0.0533
     34 H         115.6936  151.1212  148.5525 H       1  UNL111      0.0590
     35 H         115.7274  149.9370  147.2349 H       1  UNL111      0.0590
     36 H         115.6480  153.9760  145.9559 H       1  UNL111      0.0484
     37 H         115.5260  153.6899  147.7041 H       1  UNL111      0.0484
     38 H         113.6022  150.5625  146.4658 H       1  UNL111      0.0944
     39 H         113.7953  152.6118  145.4676 H       1  UNL111      0.0469
     40 H         113.2782  153.3570  146.9906 H       1  UNL111      0.0469
     41 H         118.9629  151.2011  144.8877 H       1  UNL111      0.0505
     42 H         119.1815  152.7454  144.0777 H       1  UNL111      0.0505
     43 H         120.4079  151.5893  146.8040 H       1  UNL111      0.0518
     44 H         120.2608  153.0242  147.8033 H       1  UNL111      0.0518
     45 H         116.7054  153.1697  144.2237 H       1  UNL111      0.0891
     46 H         117.0793  151.6550  143.4178 H       1  UNL111      0.0891
     47 H         121.2828  152.9997  144.8950 H       1  UNL111      0.0736
     48 H         121.1617  154.4491  145.9448 H       1  UNL111      0.0736
     49 H         117.9478  154.6591  148.3012 H       1  UNL111      0.1002
     50 H         117.6590  157.0912  148.0963 H       1  UNL111      0.0906
     51 H         118.7624  156.7804  143.9700 H       1  UNL111      0.1371
     52 H         123.5054  154.8332  145.8343 H       1  UNL111      0.0945
     53 H         123.7321  153.4192  144.7751 H       1  UNL111      0.0945
     54 H         118.0494  158.1992  145.8957 H       1  UNL111      0.0980
     55 H         127.5813  151.4808  147.4420 H       1  UNL111      0.1157
     56 H         128.0305  153.9304  148.2381 H       1  UNL111      0.1129
     57 H         125.3372  149.2132  145.3639 H       1  UNL111      0.1070
     58 H         126.1436  149.5967  146.8915 H       1  UNL111      0.1070
     59 H         126.8032  150.2041  145.3237 H       1  UNL111      0.1070
@<TRIPOS>UNITY_ATOM_ATTR
6 1
charge 1
@<TRIPOS>BOND
     1     1    24   ar
     2     1    27   ar
     3     2     7    1
     4     2    16    1
     5     3    12    1
     6     4    25    1
     7     4    28    1
     8     5    17   ar
     9     5    21   ar
    10     6    18    1
    11     6    22    1
    12     7     9    1
    13     7    10    1
    14     7    11    1
    15     8     9    1
    16     8    14    1
    17     8    15    1
    18     8    17    1
    19    10    12    1
    20    11    13    1
    21    12    13    1
    22    14    16    1
    23    15    18    1
    24    17    19   ar
    25    19    20   ar
    26    20    23   ar
    27    21    23   ar
    28    22    24    1
    29    24    25   ar
    30    25    26   ar
    31    26    27   ar
    32     3    29    1
    33     6    30    1
    34     6    31    1
    35     9    32    1
    36     9    33    1
    37    10    34    1
    38    10    35    1
    39    11    36    1
    40    11    37    1
    41    12    38    1
    42    13    39    1
    43    13    40    1
    44    14    41    1
    45    14    42    1
    46    15    43    1
    47    15    44    1
    48    16    45    1
    49    16    46    1
    50    18    47    1
    51    18    48    1
    52    19    49    1
    53    20    50    1
    54    21    51    1
    55    22    52    1
    56    22    53    1
    57    23    54    1
    58    26    55    1
    59    27    56    1
    60    28    57    1
    61    28    58    1
    62    28    59    1
@<TRIPOS>MOLECULE
66555030
 58 61 0 0 0
SMALL
GASTEIGER

@<TRIPOS>ATOM
      1 S         114.4729  151.6365  147.7466 S.2     1  UNL111     -0.1209
      2 O         123.6293  155.0661  145.7286 O.3     1  UNL111     -0.4593
      3 O         114.3774  154.7586  145.4908 O.3     1  UNL111     -0.5766
      4 N         121.2855  151.5256  144.9121 N.ar    1  UNL111     -0.3346
      5 N         117.4118  153.1718  146.6521 N.4     1  UNL111      0.4365
      6 C         123.6813  154.3321  146.9553 C.3     1  UNL111      0.0112
      7 C         121.2873  153.4466  146.4366 C.3     1  UNL111      0.0145
      8 C         122.2560  154.0801  147.4791 C.3     1  UNL111     -0.0141
      9 C         124.4831  155.1878  147.9504 C.3     1  UNL111     -0.0341
     10 C         124.5877  153.0994  146.8470 C.3     1  UNL111     -0.0341
     11 C         121.4149  154.2998  145.1417 C.3     1  UNL111     -0.0181
     12 C         125.9452  154.9950  147.5473 C.3     1  UNL111     -0.0539
     13 C         126.0003  153.6757  146.7816 C.3     1  UNL111     -0.0539
     14 C         119.8245  153.5508  146.9800 C.3     1  UNL111     -0.0360
     15 C         122.8627  154.4552  144.6986 C.3     1  UNL111      0.0066
     16 C         121.5558  151.9603  146.1688 C.ar    1  UNL111      0.0003
     17 C         118.7608  152.9629  146.0458 C.3     1  UNL111     -0.0328
     18 C         121.9283  151.0675  147.1743 C.ar    1  UNL111     -0.0511
     19 C         122.1088  149.7213  146.8611 C.ar    1  UNL111     -0.0708
     20 C         121.4943  150.2187  144.6265 C.ar    1  UNL111     -0.0127
     21 C         116.2992  152.5511  145.8694 C.3     1  UNL111      0.0144
     22 C         121.9007  149.2872  145.5606 C.ar    1  UNL111     -0.0571
     23 C         114.9959  152.7531  146.5581 C.ar    1  UNL111      0.0223
     24 C         114.0878  153.7752  146.3798 C.ar    1  UNL111      0.0607
     25 C         112.9438  153.6285  147.2171 C.ar    1  UNL111     -0.0115
     26 C         113.0237  152.5019  148.0079 C.ar    1  UNL111     -0.0253
     27 C         113.2931  155.6425  145.2113 C.3     1  UNL111      0.0308
     28 H         117.2046  154.1755  146.7401 H       1  UNL111      0.1383
     29 H         117.3789  152.7831  147.6027 H       1  UNL111      0.1383
     30 H         121.8382  155.0616  147.7505 H       1  UNL111      0.0531
     31 H         122.2840  153.5117  148.4151 H       1  UNL111      0.0531
     32 H         124.3413  154.8285  148.9773 H       1  UNL111      0.0462
     33 H         124.2091  156.2476  147.9152 H       1  UNL111      0.0462
     34 H         124.4011  152.4729  145.9720 H       1  UNL111      0.0462
     35 H         124.4979  152.4740  147.7434 H       1  UNL111      0.0462
     36 H         121.0155  155.3029  145.3462 H       1  UNL111      0.0505
     37 H         120.8272  153.8958  144.3104 H       1  UNL111      0.0505
     38 H         126.5967  154.9806  148.4271 H       1  UNL111      0.0342
     39 H         126.2815  155.8158  146.9037 H       1  UNL111      0.0342
     40 H         126.2870  153.8625  145.7400 H       1  UNL111      0.0342
     41 H         126.7357  152.9850  147.2059 H       1  UNL111      0.0342
     42 H         119.5843  154.6053  147.1729 H       1  UNL111      0.0518
     43 H         119.7595  153.0431  147.9525 H       1  UNL111      0.0518
     44 H         123.3106  153.5057  144.3922 H       1  UNL111      0.0891
     45 H         122.9047  155.1182  143.8280 H       1  UNL111      0.0891
     46 H         118.7444  153.4567  145.0707 H       1  UNL111      0.0736
     47 H         118.8735  151.8829  145.9224 H       1  UNL111      0.0736
     48 H         122.0949  151.3857  148.1977 H       1  UNL111      0.1002
     49 H         122.4240  149.0171  147.6277 H       1  UNL111      0.0906
     50 H         121.3199  149.9326  143.5924 H       1  UNL111      0.1371
     51 H         116.5350  151.4872  145.7544 H       1  UNL111      0.0945
     52 H         116.3060  153.0161  144.8776 H       1  UNL111      0.0945
     53 H         122.0548  148.2498  145.2829 H       1  UNL111      0.0980
     54 H         112.0945  154.2999  147.2583 H       1  UNL111      0.1157
     55 H         112.2975  152.1486  148.7295 H       1  UNL111      0.1129
     56 H         113.6210  156.3370  144.4320 H       1  UNL111      0.1070
     57 H         113.0295  156.2310  146.0962 H       1  UNL111      0.1070
     58 H         112.4243  155.0952  144.8292 H       1  UNL111      0.1070
@<TRIPOS>UNITY_ATOM_ATTR
5 1
charge 1
@<TRIPOS>BOND
     1     1    23   ar
     2     1    26   ar
     3     2     6    1
     4     2    15    1
     5     3    24    1
     6     3    27    1
     7     4    16   ar
     8     4    20   ar
     9     5    17    1
    10     5    21    1
    11     6     8    1
    12     6     9    1
    13     6    10    1
    14     7     8    1
    15     7    11    1
    16     7    14    1
    17     7    16    1
    18     9    12    1
    19    10    13    1
    20    11    15    1
    21    12    13    1
    22    14    17    1
    23    16    18   ar
    24    18    19   ar
    25    19    22   ar
    26    20    22   ar
    27    21    23    1
    28    23    24   ar
    29    24    25   ar
    30    25    26   ar
    31     5    28    1
    32     5    29    1
    33     8    30    1
    34     8    31    1
    35     9    32    1
    36     9    33    1
    37    10    34    1
    38    10    35    1
    39    11    36    1
    40    11    37    1
    41    12    38    1
    42    12    39    1
    43    13    40    1
    44    13    41    1
    45    14    42    1
    46    14    43    1
    47    15    44    1
    48    15    45    1
    49    17    46    1
    50    17    47    1
    51    18    48    1
    52    19    49    1
    53    20    50    1
    54    21    51    1
    55    21    52    1
    56    22    53    1
    57    25    54    1
    58    26    55    1
    59    27    56    1
    60    27    57    1
    61    27    58    1
