@<TRIPOS>MOLECULE
5284603
 45 49 0 0 0
SMALL
GASTEIGER

@<TRIPOS>ATOM
      1 O         118.2820  154.0844  145.1214 O.2     1  UNL111     -0.5288
      2 O         122.7613  154.4417  146.0394 O.3     1  UNL111     -0.4354
      3 O         118.3900  156.3779  146.7159 O.2     1  UNL111     -0.4035
      4 O         115.9498  152.6145  145.7788 O.2     1  UNL111     -0.5683
      5 N         122.8251  151.7920  145.9098 N.4     1  UNL111      0.4301
      6 C         120.5285  153.5351  145.7566 C.3     1  UNL111      0.0838
      7 C         121.6718  153.8058  146.7514 C.3     1  UNL111      0.0494
      8 C         122.2050  152.4007  147.1950 C.3     1  UNL111      0.0013
      9 C         119.5732  154.6923  145.4139 C.3     1  UNL111      0.1428
     10 C         121.0644  152.8395  144.4794 C.3     1  UNL111     -0.0175
     11 C         119.5162  152.6409  146.3840 C.3     1  UNL111      0.0337
     12 C         121.2407  154.7078  147.9143 C.3     1  UNL111     -0.0022
     13 C         121.1458  151.4690  147.8513 C.3     1  UNL111     -0.0147
     14 C         121.8480  151.5615  144.7818 C.3     1  UNL111     -0.0334
     15 C         119.7577  151.6367  147.2994 C.3     1  UNL111     -0.0392
     16 C         120.6385  156.0082  147.3919 C.3     1  UNL111      0.0363
     17 C         119.4198  155.7280  146.5429 C.2     1  UNL111      0.1306
     18 C         118.2520  152.9698  145.9308 C.3     1  UNL111      0.1114
     19 C         123.7230  150.6164  146.1477 C.3     1  UNL111     -0.0427
     20 C         118.6536  150.8931  147.7125 C.3     1  UNL111     -0.0567
     21 C         117.1448  152.2368  146.3092 C.3     1  UNL111      0.0934
     22 C         117.3622  151.1808  147.2075 C.3     1  UNL111     -0.0129
     23 C         114.7881  151.9403  146.2438 C.3     1  UNL111      0.0331
     24 H         123.1846  155.1192  146.6051 H       1  UNL111      0.2436
     25 H         123.4340  152.5594  145.5701 H       1  UNL111      0.1349
     26 H         123.0594  152.5278  147.8711 H       1  UNL111      0.0968
     27 H         119.9102  155.2396  144.5256 H       1  UNL111      0.1627
     28 H         121.7127  153.5352  143.9308 H       1  UNL111      0.0565
     29 H         120.2503  152.5874  143.7869 H       1  UNL111      0.0565
     30 H         122.1073  154.9517  148.5407 H       1  UNL111      0.0555
     31 H         120.5117  154.2039  148.5590 H       1  UNL111      0.0555
     32 H         121.0991  151.7230  148.9182 H       1  UNL111      0.0633
     33 H         121.4463  150.4189  147.7847 H       1  UNL111      0.0633
     34 H         121.1989  150.7271  145.0652 H       1  UNL111      0.0743
     35 H         122.4303  151.2619  143.9035 H       1  UNL111      0.0743
     36 H         121.3538  156.5802  146.7922 H       1  UNL111      0.0708
     37 H         120.3384  156.6338  148.2399 H       1  UNL111      0.0708
     38 H         123.1140  149.7538  146.4262 H       1  UNL111      0.0670
     39 H         124.4258  150.8766  146.9429 H       1  UNL111      0.0670
     40 H         124.2691  150.4176  145.2216 H       1  UNL111      0.0670
     41 H         118.7623  150.0891  148.4391 H       1  UNL111      0.0940
     42 H         116.5365  150.5662  147.5576 H       1  UNL111      0.1142
     43 H         113.9200  152.3910  145.7534 H       1  UNL111      0.1074
     44 H         114.6640  152.0654  147.3246 H       1  UNL111      0.1074
     45 H         114.8133  150.8805  145.9698 H       1  UNL111      0.1074
@<TRIPOS>UNITY_ATOM_ATTR
5 1
charge 1
@<TRIPOS>BOND
     1     1     9    1
     2     1    18    1
     3     2     7    1
     4     3    17    2
     5     4    21    1
     6     4    23    1
     7     5     8    1
     8     5    14    1
     9     5    19    1
    10     6     7    1
    11     6     9    1
    12     6    10    1
    13     6    11    1
    14     7     8    1
    15     7    12    1
    16     8    13    1
    17     9    17    1
    18    10    14    1
    19    11    15   ar
    20    11    18   ar
    21    12    16    1
    22    13    15    1
    23    15    20   ar
    24    16    17    1
    25    18    21   ar
    26    20    22   ar
    27    21    22   ar
    28     2    24    1
    29     5    25    1
    30     8    26    1
    31     9    27    1
    32    10    28    1
    33    10    29    1
    34    12    30    1
    35    12    31    1
    36    13    32    1
    37    13    33    1
    38    14    34    1
    39    14    35    1
    40    16    36    1
    41    16    37    1
    42    19    38    1
    43    19    39    1
    44    19    40    1
    45    20    41    1
    46    22    42    1
    47    23    43    1
    48    23    44    1
    49    23    45    1
@<TRIPOS>MOLECULE
45040173
 27 31 0 0 0
SMALL
GASTEIGER

@<TRIPOS>ATOM
      1 O         118.1514  154.2288  145.3093 O.2     1  UNL111     -0.5037
      2 O         122.7966  154.4080  146.3126 O.3     1  UNL111     -0.2993
      3 O         118.8680  156.9875  146.2328 O.2     1  UNL111     -0.3917
      4 O         115.8298  152.6390  145.9663 O.2     1  UNL111     -0.5647
      5 N         123.0789  151.8677  146.0144 N.4     1  UNL111      0.4621
      6 C         120.4572  153.6339  145.7526 C.3     1  UNL111      0.1479
      7 C         121.7404  153.7920  146.8404 C.3     1  UNL111      0.1474
      8 C         122.2102  152.3161  147.1349 C.3     1  UNL111      0.0929
      9 C         119.4623  154.7761  145.4603 C.3     1  UNL111      0.2210
     10 C         121.0524  152.9564  144.5593 C.3     1  UNL111      0.0901
     11 C         119.4336  152.6464  146.3122 C.2     1  UNL111      0.0573
     12 C         121.2529  154.6331  147.9200 C.3     1  UNL111      0.1063
     13 C         121.0791  151.4795  147.4648 C.3     1  UNL111      0.0787
     14 C         122.2711  152.0538  144.7802 C.3     1  UNL111      0.0668
     15 C         119.7033  151.5521  147.1259 C.2     1  UNL111      0.0085
     16 C         120.2438  155.7288  147.6317 C.3     1  UNL111      0.1440
     17 C         119.4950  155.9553  146.4173 C.2     1  UNL111      0.1788
     18 C         118.1498  153.0115  145.9546 C.2     1  UNL111      0.1256
     19 C         123.7355  150.5807  146.1462 C.3     1  UNL111      0.1010
     20 C         118.6545  150.7598  147.5476 C.2     1  UNL111      0.0160
     21 C         117.0764  152.2387  146.3461 C.2     1  UNL111      0.1172
     22 C         117.3497  151.1019  147.1337 C.2     1  UNL111      0.0653
     23 C         114.7600  151.8101  146.4106 C.3     1  UNL111      0.0339
     24 H         123.7627  152.6574  145.9627 H       1  UNL111      0.1761
     25 H         113.8263  152.2393  146.0345 H       1  UNL111      0.1075
     26 H         114.7032  151.7903  147.5042 H       1  UNL111      0.1075
     27 H         114.8502  150.7971  146.0036 H       1  UNL111      0.1075
@<TRIPOS>UNITY_ATOM_ATTR
5 1
charge 1
@<TRIPOS>BOND
     1     1     9    1
     2     1    18    1
     3     2     7    1
     4     3    17    2
     5     4    21    1
     6     4    23    1
     7     5     8    1
     8     5    14    1
     9     5    19    1
    10     6     7    1
    11     6     9    1
    12     6    10    1
    13     6    11    1
    14     7     8    1
    15     7    12    1
    16     8    13    1
    17     9    17    1
    18    10    14    1
    19    11    15    2
    20    11    18    1
    21    12    16    1
    22    13    15    1
    23    15    20    1
    24    16    17    1
    25    18    21    2
    26    20    22    2
    27    21    22    1
    28     5    24    1
    29    23    25    1
    30    23    26    1
    31    23    27    1
@<TRIPOS>MOLECULE
59253422
 30 34 0 0 0
SMALL
GASTEIGER

@<TRIPOS>ATOM
      1 O         118.1421  154.2361  145.3092 O.2     1  UNL111     -0.5037
      2 O         122.7836  154.4545  146.2959 O.3     1  UNL111     -0.2995
      3 O         118.8472  156.9953  146.2305 O.2     1  UNL111     -0.3917
      4 O         115.8268  152.6393  145.9794 O.2     1  UNL111     -0.5647
      5 N         123.0536  151.8531  145.9798 N.4     1  UNL111      0.4463
      6 C         120.4529  153.6498  145.7481 C.3     1  UNL111      0.1475
      7 C         121.7377  153.8200  146.8239 C.3     1  UNL111      0.1451
      8 C         122.2097  152.3367  147.1156 C.3     1  UNL111      0.0784
      9 C         119.4525  154.7882  145.4538 C.3     1  UNL111      0.2210
     10 C         121.0341  152.9579  144.5569 C.3     1  UNL111      0.0871
     11 C         119.4306  152.6662  146.3231 C.2     1  UNL111      0.0572
     12 C         121.2463  154.6518  147.9113 C.3     1  UNL111      0.1061
     13 C         121.0860  151.5037  147.4679 C.3     1  UNL111      0.0759
     14 C         122.2349  152.0356  144.7585 C.3     1  UNL111      0.0496
     15 C         119.7070  151.5768  147.1415 C.2     1  UNL111      0.0083
     16 C         120.2319  155.7439  147.6268 C.3     1  UNL111      0.1440
     17 C         119.4834  155.9674  146.4115 C.2     1  UNL111      0.1788
     18 C         118.1452  153.0249  145.9654 C.2     1  UNL111      0.1256
     19 C         123.7043  150.5664  146.2098 C.3     1  UNL111     -0.0303
     20 C         118.6621  150.7833  147.5700 C.2     1  UNL111      0.0160
     21 C         117.0759  152.2495  146.3627 C.2     1  UNL111      0.1172
     22 C         117.3552  151.1188  147.1572 C.2     1  UNL111      0.0653
     23 C         114.7634  151.7991  146.4171 C.3     1  UNL111      0.0339
     24 H         123.7335  152.6469  145.9080 H       1  UNL111      0.1553
     25 H         122.9535  149.7714  146.2524 H       1  UNL111      0.0696
     26 H         124.2696  150.6162  147.1453 H       1  UNL111      0.0696
     27 H         124.3934  150.3808  145.3806 H       1  UNL111      0.0696
     28 H         113.8277  152.2169  146.0333 H       1  UNL111      0.1075
     29 H         114.6988  151.7801  147.5102 H       1  UNL111      0.1075
     30 H         114.8679  150.7866  146.0122 H       1  UNL111      0.1075
@<TRIPOS>UNITY_ATOM_ATTR
5 1
charge 1
@<TRIPOS>BOND
     1     1     9    1
     2     1    18    1
     3     2     7    1
     4     3    17    2
     5     4    21    1
     6     4    23    1
     7     5     8    1
     8     5    14    1
     9     5    19    1
    10     6     7    1
    11     6     9    1
    12     6    10    1
    13     6    11    1
    14     7     8    1
    15     7    12    1
    16     8    13    1
    17     9    17    1
    18    10    14    1
    19    11    15    2
    20    11    18    1
    21    12    16    1
    22    13    15    1
    23    15    20    1
    24    16    17    1
    25    18    21    2
    26    20    22    2
    27    21    22    1
    28     5    24    1
    29    19    25    1
    30    19    26    1
    31    19    27    1
    32    23    28    1
    33    23    29    1
    34    23    30    1
@<TRIPOS>MOLECULE
71623259
 45 49 0 0 0
SMALL
GASTEIGER

@<TRIPOS>ATOM
      1 O         118.1042  152.1170  147.6915 O.2     1  UNL1111    -0.5288
      2 O         122.4426  151.4016  146.5878 O.3     1  UNL1111    -0.4356
      3 O         123.7735  153.4145  147.2186 O.co2   1  UNL1111    -0.7548
      4 O         118.0574  149.8154  146.1124 O.2     1  UNL1111    -0.4035
      5 O         115.8300  153.7143  147.0972 O.2     1  UNL1111    -0.5683
      6 N         122.7633  154.2591  146.7848 N.3     1  UNL1111     0.4052
      7 C         120.3602  152.5612  147.0003 C.3     1  UNL1111     0.0835
      8 C         121.4541  152.2437  145.9755 C.3     1  UNL1111     0.0467
      9 C         122.0669  153.6253  145.5475 C.3     1  UNL1111    -0.0170
     10 C         120.9741  153.2167  148.2615 C.3     1  UNL1111    -0.0202
     11 C         119.3645  151.4490  147.3592 C.3     1  UNL1111     0.1428
     12 C         119.3745  153.5056  146.4026 C.3     1  UNL1111     0.0336
     13 C         120.9227  151.4123  144.7967 C.3     1  UNL1111    -0.0024
     14 C         121.7856  154.4706  147.9270 C.3     1  UNL1111    -0.0519
     15 C         121.0177  154.5528  144.8561 C.3     1  UNL1111    -0.0175
     16 C         119.6408  154.4834  145.4640 C.3     1  UNL1111    -0.0394
     17 C         120.2694  150.1268  145.2965 C.3     1  UNL1111     0.0363
     18 C         119.1184  150.4339  146.2265 C.2     1  UNL1111     0.1306
     19 C         118.1091  153.2389  146.8901 C.3     1  UNL1111     0.1114
     20 C         123.4258  155.5676  146.4452 C.3     1  UNL1111    -0.0612
     21 C         118.5658  155.2789  145.0739 C.3     1  UNL1111    -0.0567
     22 C         117.0313  154.0269  146.5364 C.3     1  UNL1111     0.0934
     23 C         117.2778  155.0646  145.6218 C.3     1  UNL1111    -0.0129
     24 C         114.7076  154.4889  146.7006 C.3     1  UNL1111     0.0331
     25 H         123.1527  152.0057  146.9410 H       1  UNL1111     0.2436
     26 H         122.9063  153.4560  144.8596 H       1  UNL1111     0.0935
     27 H         121.6205  152.4915  148.7717 H       1  UNL1111     0.0563
     28 H         120.1992  153.4913  148.9890 H       1  UNL1111     0.0563
     29 H         119.6963  150.8777  148.2341 H       1  UNL1111     0.1627
     30 H         121.7531  151.1409  144.1330 H       1  UNL1111     0.0555
     31 H         120.1999  151.9704  144.1925 H       1  UNL1111     0.0555
     32 H         121.1403  155.3083  147.6446 H       1  UNL1111     0.0710
     33 H         122.3855  154.7803  148.7910 H       1  UNL1111     0.0710
     34 H         120.9241  154.2281  143.8115 H       1  UNL1111     0.0631
     35 H         121.3475  155.5936  144.8273 H       1  UNL1111     0.0631
     36 H         120.9788  149.4816  145.8250 H       1  UNL1111     0.0708
     37 H         119.8847  149.5630  144.4392 H       1  UNL1111     0.0708
     38 H         124.0441  155.4066  145.5586 H       1  UNL1111     0.0636
     39 H         124.0483  155.8496  147.2999 H       1  UNL1111     0.0636
     40 H         122.6612  156.3265  146.2748 H       1  UNL1111     0.0636
     41 H         118.6991  156.0639  144.3321 H       1  UNL1111     0.0940
     42 H         116.4766  155.7174  145.2871 H       1  UNL1111     0.1142
     43 H         113.8297  154.1009  147.2260 H       1  UNL1111     0.1074
     44 H         114.5214  154.3945  145.6256 H       1  UNL1111     0.1074
     45 H         114.8314  155.5380  146.9890 H       1  UNL1111     0.1074
@<TRIPOS>UNITY_ATOM_ATTR
3 1
charge -1
6 1
charge 1
@<TRIPOS>BOND
     1     1    11    1
     2     1    19    1
     3     2     8    1
     4     3     6    1
     5     4    18    2
     6     5    22    1
     7     5    24    1
     8     6     9    1
     9     6    14    1
    10     6    20    1
    11     7     8    1
    12     7    10    1
    13     7    11    1
    14     7    12    1
    15     8     9    1
    16     8    13    1
    17     9    15    1
    18    10    14    1
    19    11    18    1
    20    12    16   ar
    21    12    19   ar
    22    13    17    1
    23    15    16    1
    24    16    21   ar
    25    17    18    1
    26    19    22   ar
    27    21    23   ar
    28    22    23   ar
    29     2    25    1
    30     9    26    1
    31    10    27    1
    32    10    28    1
    33    11    29    1
    34    13    30    1
    35    13    31    1
    36    14    32    1
    37    14    33    1
    38    15    34    1
    39    15    35    1
    40    17    36    1
    41    17    37    1
    42    20    38    1
    43    20    39    1
    44    20    40    1
    45    21    41    1
    46    23    42    1
    47    24    43    1
    48    24    44    1
    49    24    45    1
@<TRIPOS>MOLECULE
46782660
 27 31 0 0 0
SMALL
GASTEIGER

@<TRIPOS>ATOM
      1 O         118.1157  154.2285  145.3511 O.2     1  UNL111     -0.5035
      2 O         122.7713  154.4533  146.2514 O.3     1  UNL111     -0.2995
      3 O         118.8002  156.9753  146.2543 O.2     1  UNL111     -0.3917
      4 O         115.8067  152.6629  146.0860 O.2     1  UNL111     -0.4913
      5 N         123.0361  151.8443  145.9633 N.4     1  UNL111      0.4463
      6 C         120.4353  153.6445  145.7582 C.3     1  UNL111      0.1475
      7 C         121.7379  153.8246  146.8078 C.3     1  UNL111      0.1451
      8 C         122.2140  152.3440  147.1084 C.3     1  UNL111      0.0784
      9 C         119.4296  154.7809  145.4701 C.3     1  UNL111      0.2210
     10 C         120.9926  152.9380  144.5645 C.3     1  UNL111      0.0871
     11 C         119.4198  152.6691  146.3609 C.2     1  UNL111      0.0574
     12 C         121.2673  154.6701  147.8936 C.3     1  UNL111      0.1061
     13 C         121.0941  151.5178  147.4895 C.3     1  UNL111      0.0759
     14 C         122.1966  152.0164  144.7547 C.3     1  UNL111      0.0496
     15 C         119.7097  151.5882  147.1864 C.2     1  UNL111      0.0083
     16 C         120.2510  155.7620  147.6172 C.3     1  UNL111      0.1440
     17 C         119.4733  155.9683  146.4182 C.2     1  UNL111      0.1788
     18 C         118.1285  153.0255  146.0203 C.2     1  UNL111      0.1280
     19 C         123.6843  150.5558  146.1959 C.3     1  UNL111     -0.0303
     20 C         118.6714  150.8009  147.6417 C.2     1  UNL111      0.0162
     21 C         117.0641  152.2559  146.4400 C.2     1  UNL111      0.1343
     22 C         117.3576  151.1345  147.2484 C.2     1  UNL111      0.0679
     23 C         114.7935  151.7221  146.3199 C.3     1  UNL111      0.2602
     24 H         123.7200  152.6322  145.8704 H       1  UNL111      0.1553
     25 H         122.9294  149.7671  146.2715 H       1  UNL111      0.0696
     26 H         124.2752  150.6167  147.1147 H       1  UNL111      0.0696
     27 H         124.3488  150.3523  145.3510 H       1  UNL111      0.0696
@<TRIPOS>UNITY_ATOM_ATTR
5 1
charge 1
@<TRIPOS>BOND
     1     1     9    1
     2     1    18    1
     3     2     7    1
     4     3    17    2
     5     4    21    1
     6     4    23    1
     7     5     8    1
     8     5    14    1
     9     5    19    1
    10     6     7    1
    11     6     9    1
    12     6    10    1
    13     6    11    1
    14     7     8    1
    15     7    12    1
    16     8    13    1
    17     9    17    1
    18    10    14    1
    19    11    15    2
    20    11    18    1
    21    12    16    1
    22    13    15    1
    23    15    20    1
    24    16    17    1
    25    18    21    2
    26    20    22    2
    27    21    22    1
    28     5    24    1
    29    19    25    1
    30    19    26    1
    31    19    27    1
@<TRIPOS>MOLECULE
133688905
 50 54 0 0 0
SMALL
GASTEIGER

@<TRIPOS>ATOM
      1 O         121.6928  154.3326  145.1667 O.2     1  UNL111     -0.5279
      2 O         117.2924  153.8407  145.9468 O.3     1  UNL111     -0.5043
      3 O         121.0548  156.5503  146.7476 O.2     1  UNL111     -0.4033
      4 O         124.2862  153.4162  145.8581 O.2     1  UNL111     -0.5683
      5 O         115.6876  153.1228  147.3924 O.2     1  UNL111     -0.3411
      6 N         117.8110  151.0187  145.8429 N.4     1  UNL111      0.4316
      7 C         119.6192  153.2905  145.7654 C.3     1  UNL111      0.0977
      8 C         118.4122  153.2932  146.7266 C.3     1  UNL111      0.0984
      9 C         118.2049  151.7831  147.1364 C.3     1  UNL111      0.0161
     10 C         120.2960  154.6370  145.4494 C.3     1  UNL111      0.1462
     11 C         119.2798  152.5051  144.4696 C.3     1  UNL111     -0.0139
     12 C         120.7956  152.6418  146.4044 C.3     1  UNL111      0.0378
     13 C         118.6534  154.2342  147.9236 C.3     1  UNL111      0.0122
     14 C         119.4435  151.1391  147.8435 C.3     1  UNL111     -0.0111
     15 C         118.8381  151.0660  144.7383 C.3     1  UNL111     -0.0320
     16 C         120.7694  151.6054  147.3132 C.3     1  UNL111     -0.0377
     17 C         118.9709  155.6506  147.4539 C.3     1  UNL111      0.0399
     18 C         120.2102  155.6701  146.5886 C.2     1  UNL111      0.1320
     19 C         121.9610  153.2475  145.9726 C.3     1  UNL111      0.1123
     20 C         117.3053  149.6221  146.0930 C.3     1  UNL111     -0.0420
     21 C         122.0044  151.1256  147.7451 C.3     1  UNL111     -0.0565
     22 C         123.1977  152.7787  146.3684 C.3     1  UNL111      0.0935
     23 C         123.2070  151.6964  147.2617 C.3     1  UNL111     -0.0129
     24 C         116.0223  153.7995  146.4353 C.2     1  UNL111      0.2152
     25 C         115.1098  154.6555  145.6147 C.3     1  UNL111      0.0551
     26 C         125.5596  153.0339  146.3615 C.3     1  UNL111      0.0331
     27 H         116.9856  151.5207  145.4881 H       1  UNL111      0.1361
     28 H         117.3477  151.6578  147.8019 H       1  UNL111      0.1029
     29 H         119.8546  155.1062  144.5621 H       1  UNL111      0.1635
     30 H         120.1379  152.4752  143.7848 H       1  UNL111      0.0574
     31 H         118.4857  153.0272  143.9203 H       1  UNL111      0.0574
     32 H         119.4717  153.8748  148.5572 H       1  UNL111      0.0614
     33 H         117.7627  154.2750  148.5608 H       1  UNL111      0.0614
     34 H         119.3972  150.0468  147.8107 H       1  UNL111      0.0642
     35 H         119.4032  151.4250  148.9028 H       1  UNL111      0.0642
     36 H         118.3700  150.6414  143.8434 H       1  UNL111      0.0745
     37 H         119.6733  150.4205  145.0277 H       1  UNL111      0.0745
     38 H         119.1471  156.2873  148.3282 H       1  UNL111      0.0716
     39 H         118.1448  156.0892  146.8852 H       1  UNL111      0.0716
     40 H         118.1458  148.9785  146.3602 H       1  UNL111      0.0671
     41 H         116.8343  149.2699  145.1712 H       1  UNL111      0.0671
     42 H         116.5645  149.6639  146.8952 H       1  UNL111      0.0671
     43 H         122.0658  150.3163  148.4715 H       1  UNL111      0.0940
     44 H         124.1434  151.2803  147.6255 H       1  UNL111      0.1142
     45 H         115.1809  154.3720  144.5614 H       1  UNL111      0.0793
     46 H         115.3731  155.7074  145.7486 H       1  UNL111      0.0793
     47 H         114.0779  154.5033  145.9436 H       1  UNL111      0.0793
     48 H         126.3119  153.6748  145.8918 H       1  UNL111      0.1074
     49 H         125.7911  151.9973  146.0956 H       1  UNL111      0.1074
     50 H         125.6195  153.1863  147.4443 H       1  UNL111      0.1074
@<TRIPOS>UNITY_ATOM_ATTR
6 1
charge 1
@<TRIPOS>BOND
     1     1    10    1
     2     1    19    1
     3     2     8    1
     4     2    24    1
     5     3    18    2
     6     4    22    1
     7     4    26    1
     8     5    24    2
     9     6     9    1
    10     6    15    1
    11     6    20    1
    12     7     8    1
    13     7    10    1
    14     7    11    1
    15     7    12    1
    16     8     9    1
    17     8    13    1
    18     9    14    1
    19    10    18    1
    20    11    15    1
    21    12    16   ar
    22    12    19   ar
    23    13    17    1
    24    14    16    1
    25    16    21   ar
    26    17    18    1
    27    19    22   ar
    28    21    23   ar
    29    22    23   ar
    30    24    25    1
    31     6    27    1
    32     9    28    1
    33    10    29    1
    34    11    30    1
    35    11    31    1
    36    13    32    1
    37    13    33    1
    38    14    34    1
    39    14    35    1
    40    15    36    1
    41    15    37    1
    42    17    38    1
    43    17    39    1
    44    20    40    1
    45    20    41    1
    46    20    42    1
    47    21    43    1
    48    23    44    1
    49    25    45    1
    50    25    46    1
    51    25    47    1
    52    26    48    1
    53    26    49    1
    54    26    50    1
@<TRIPOS>MOLECULE
398247
 50 54 0 0 0
SMALL
GASTEIGER

@<TRIPOS>ATOM
      1 O         117.8599  154.4988  146.1911 O.2     1  UNL111     -0.5279
      2 O         121.2809  153.3545  147.8485 O.3     1  UNL111     -0.5043
      3 O         119.6647  156.7293  145.0657 O.2     1  UNL111     -0.4033
      4 O         115.3546  152.8657  147.0743 O.2     1  UNL111     -0.5683
      5 O         123.3869  152.5316  148.1187 O.2     1  UNL111     -0.3411
      6 N         121.6610  151.6144  144.4205 N.4     1  UNL111      0.4316
      7 C         119.9370  153.4594  145.8257 C.3     1  UNL111      0.0977
      8 C         121.3417  153.2115  146.3943 C.3     1  UNL111      0.0984
      9 C         121.6648  151.7258  145.9652 C.3     1  UNL111      0.0161
     10 C         119.2672  154.7182  146.3755 C.3     1  UNL111      0.1462
     11 C         119.8728  153.3342  144.2724 C.3     1  UNL111     -0.0139
     12 C         118.9561  152.5080  146.3816 C.3     1  UNL111      0.0378
     13 C         122.2320  154.3687  145.8624 C.3     1  UNL111      0.0122
     14 C         120.6498  150.7058  146.6313 C.3     1  UNL111     -0.0111
     15 C         120.3536  151.9802  143.7640 C.3     1  UNL111     -0.0320
     16 C         119.2229  151.1967  146.7159 C.3     1  UNL111     -0.0377
     17 C         121.6086  155.7639  146.1457 C.3     1  UNL111      0.0399
     18 C         120.1165  155.8460  145.7845 C.2     1  UNL111      0.1320
     19 C         117.7315  153.1527  146.5125 C.3     1  UNL111      0.1123
     20 C         122.1785  150.2879  143.9128 C.3     1  UNL111     -0.0420
     21 C         118.1359  150.4699  147.1826 C.3     1  UNL111     -0.0565
     22 C         116.6358  152.4330  146.9259 C.3     1  UNL111      0.0935
     23 C         116.8588  151.0822  147.2710 C.3     1  UNL111     -0.0129
     24 C         122.3657  153.0035  148.5932 C.2     1  UNL111      0.2152
     25 C         122.1345  153.2902  150.0431 C.3     1  UNL111      0.0551
     26 C         115.0319  154.1185  146.4802 C.3     1  UNL111      0.0331
     27 H         122.3636  152.2849  144.0805 H       1  UNL111      0.1361
     28 H         122.6804  151.4375  146.2460 H       1  UNL111      0.1029
     29 H         119.3935  154.8421  147.4640 H       1  UNL111      0.1635
     30 H         120.4720  154.1171  143.7938 H       1  UNL111      0.0574
     31 H         118.8517  153.4930  143.9002 H       1  UNL111      0.0574
     32 H         122.4029  154.2790  144.7853 H       1  UNL111      0.0614
     33 H         123.2242  154.3420  146.3256 H       1  UNL111      0.0614
     34 H         120.9878  150.5307  147.6608 H       1  UNL111      0.0642
     35 H         120.6726  149.7378  146.1232 H       1  UNL111      0.0642
     36 H         119.6358  151.1784  143.9636 H       1  UNL111      0.0745
     37 H         120.5326  152.0206  142.6839 H       1  UNL111      0.0745
     38 H         122.1511  156.5277  145.5783 H       1  UNL111      0.0716
     39 H         121.7039  156.0127  147.2087 H       1  UNL111      0.0716
     40 H         121.4317  149.5139  144.0998 H       1  UNL111      0.0671
     41 H         123.1184  150.0686  144.4251 H       1  UNL111      0.0671
     42 H         122.3566  150.3925  142.8389 H       1  UNL111      0.0671
     43 H         118.2427  149.4323  147.4937 H       1  UNL111      0.0940
     44 H         116.0167  150.4910  147.6324 H       1  UNL111      0.1142
     45 H         121.1549  152.9118  150.3470 H       1  UNL111      0.0793
     46 H         122.2015  154.3659  150.2204 H       1  UNL111      0.0793
     47 H         122.8953  152.7769  150.6380 H       1  UNL111      0.0793
     48 H         113.9459  154.2418  146.5362 H       1  UNL111      0.1074
     49 H         115.3112  154.1437  145.4212 H       1  UNL111      0.1074
     50 H         115.4878  154.9437  147.0354 H       1  UNL111      0.1074
@<TRIPOS>UNITY_ATOM_ATTR
6 1
charge 1
@<TRIPOS>BOND
     1     1    10    1
     2     1    19    1
     3     2     8    1
     4     2    24    1
     5     3    18    2
     6     4    22    1
     7     4    26    1
     8     5    24    2
     9     6     9    1
    10     6    15    1
    11     6    20    1
    12     7     8    1
    13     7    10    1
    14     7    11    1
    15     7    12    1
    16     8     9    1
    17     8    13    1
    18     9    14    1
    19    10    18    1
    20    11    15    1
    21    12    16   ar
    22    12    19   ar
    23    13    17    1
    24    14    16    1
    25    16    21   ar
    26    17    18    1
    27    19    22   ar
    28    21    23   ar
    29    22    23   ar
    30    24    25    1
    31     6    27    1
    32     9    28    1
    33    10    29    1
    34    11    30    1
    35    11    31    1
    36    13    32    1
    37    13    33    1
    38    14    34    1
    39    14    35    1
    40    15    36    1
    41    15    37    1
    42    17    38    1
    43    17    39    1
    44    20    40    1
    45    20    41    1
    46    20    42    1
    47    21    43    1
    48    23    44    1
    49    25    45    1
    50    25    46    1
    51    25    47    1
    52    26    48    1
    53    26    49    1
    54    26    50    1
@<TRIPOS>MOLECULE
53637770
 50 54 0 0 0
SMALL
GASTEIGER

@<TRIPOS>ATOM
      1 O         119.8771  151.1850  146.0700 O.2     1  UNL111     -0.5304
      2 O         118.1959  155.5101  146.3390 O.3     1  UNL111     -0.4342
      3 O         116.8783  151.3125  146.7478 O.3     1  UNL111     -0.4691
      4 O         122.3615  149.7088  145.9982 O.2     1  UNL111     -0.5683
      5 O         115.9896  152.9324  145.3513 O.2     1  UNL111     -0.3384
      6 N         120.4609  156.2094  145.5502 N.4     1  UNL111      0.4302
      7 C         119.7103  153.5454  146.2795 C.3     1  UNL111      0.0832
      8 C         119.2297  154.7612  147.0881 C.3     1  UNL111      0.0529
      9 C         120.4360  155.7430  147.0603 C.3     1  UNL111      0.0023
     10 C         119.1987  152.2083  146.8183 C.3     1  UNL111      0.1335
     11 C         119.6595  153.9010  144.7788 C.3     1  UNL111     -0.0174
     12 C         121.1087  153.0795  146.5029 C.3     1  UNL111      0.0338
     13 C         118.5210  154.3514  148.3982 C.3     1  UNL111      0.0083
     14 C         121.8238  155.1974  147.5151 C.3     1  UNL111     -0.0145
     15 C         120.5723  155.1175  144.4890 C.3     1  UNL111     -0.0333
     16 C         122.1436  153.8227  147.0062 C.3     1  UNL111     -0.0392
     17 C         121.1774  151.7069  146.2241 C.3     1  UNL111      0.1113
     18 C         117.7562  152.2977  147.1729 C.2     1  UNL111      0.0962
     19 C         117.4561  153.2823  148.0573 C.2     1  UNL111     -0.0271
     20 C         121.3417  157.3842  145.2765 C.3     1  UNL111     -0.0427
     21 C         123.3629  153.1601  147.1078 C.3     1  UNL111     -0.0567
     22 C         122.3747  151.0338  146.2989 C.3     1  UNL111      0.0934
     23 C         123.4815  151.7914  146.7280 C.3     1  UNL111     -0.0129
     24 C         115.9863  151.7990  145.8227 C.2     1  UNL111      0.2243
     25 C         123.5987  149.0133  146.0857 C.3     1  UNL111      0.0331
     26 C         114.9617  150.7490  145.5030 C.3     1  UNL111      0.0569
     27 H         117.4007  154.9378  146.2413 H       1  UNL111      0.2440
     28 H         119.4784  156.5341  145.4464 H       1  UNL111      0.1350
     29 H         120.1904  156.6551  147.6179 H       1  UNL111      0.0970
     30 H         119.5834  152.0165  147.8484 H       1  UNL111      0.1609
     31 H         118.6330  154.1196  144.4624 H       1  UNL111      0.0565
     32 H         119.9791  153.0715  144.1341 H       1  UNL111      0.0565
     33 H         118.0047  155.2176  148.8282 H       1  UNL111      0.0637
     34 H         119.2187  153.9643  149.1478 H       1  UNL111      0.0637
     35 H         121.8123  155.1414  148.6112 H       1  UNL111      0.0633
     36 H         122.6233  155.8913  147.2372 H       1  UNL111      0.0633
     37 H         121.6277  154.8305  144.4338 H       1  UNL111      0.0743
     38 H         120.2948  155.5756  143.5333 H       1  UNL111      0.0743
     39 H         116.4588  153.3801  148.4780 H       1  UNL111      0.1025
     40 H         122.3832  157.0550  145.2912 H       1  UNL111      0.0670
     41 H         121.1583  158.1399  146.0443 H       1  UNL111      0.0670
     42 H         121.0806  157.7815  144.2923 H       1  UNL111      0.0670
     43 H         124.2407  153.6682  147.5052 H       1  UNL111      0.0940
     44 H         124.4617  151.3312  146.8333 H       1  UNL111      0.1142
     45 H         123.4200  147.9734  145.7960 H       1  UNL111      0.1074
     46 H         123.9778  149.0138  147.1131 H       1  UNL111      0.1074
     47 H         124.3368  149.4309  145.3928 H       1  UNL111      0.1074
     48 H         115.3474  149.7512  145.7336 H       1  UNL111      0.0797
     49 H         114.7337  150.7784  144.4344 H       1  UNL111      0.0797
     50 H         114.0576  150.9302  146.0892 H       1  UNL111      0.0797
@<TRIPOS>UNITY_ATOM_ATTR
6 1
charge 1
@<TRIPOS>BOND
     1     1    10    1
     2     1    17    1
     3     2     8    1
     4     3    18    1
     5     3    24    1
     6     4    22    1
     7     4    25    1
     8     5    24    2
     9     6     9    1
    10     6    15    1
    11     6    20    1
    12     7     8    1
    13     7    10    1
    14     7    11    1
    15     7    12    1
    16     8     9    1
    17     8    13    1
    18     9    14    1
    19    10    18    1
    20    11    15    1
    21    12    16   ar
    22    12    17   ar
    23    13    19    1
    24    14    16    1
    25    16    21   ar
    26    17    22   ar
    27    18    19    2
    28    21    23   ar
    29    22    23   ar
    30    24    26    1
    31     2    27    1
    32     6    28    1
    33     9    29    1
    34    10    30    1
    35    11    31    1
    36    11    32    1
    37    13    33    1
    38    13    34    1
    39    14    35    1
    40    14    36    1
    41    15    37    1
    42    15    38    1
    43    19    39    1
    44    20    40    1
    45    20    41    1
    46    20    42    1
    47    21    43    1
    48    23    44    1
    49    25    45    1
    50    25    46    1
    51    25    47    1
    52    26    48    1
    53    26    49    1
    54    26    50    1
@<TRIPOS>MOLECULE
129630659
 48 52 0 0 0
SMALL
GASTEIGER

@<TRIPOS>ATOM
      1 O         121.6239  152.1525  145.0850 O.2     1  UNL111     -0.5295
      2 O         117.1546  151.7597  146.1683 O.3     1  UNL111     -0.4412
      3 O         121.5986  149.8402  146.6637 O.2     1  UNL111     -0.4036
      4 O         123.9700  153.6292  145.6867 O.2     1  UNL111     -0.5683
      5 N         115.8569  153.9215  145.6612 N.4     1  UNL111      0.4318
      6 C         119.3953  152.6773  145.8012 C.3     1  UNL111      0.0775
      7 C         118.2773  152.4033  146.8200 C.3     1  UNL111      0.0472
      8 C         117.7535  153.8049  147.3011 C.3     1  UNL111     -0.0083
      9 C         118.8092  153.3780  144.5464 C.3     1  UNL111     -0.0196
     10 C         120.3535  151.5312  145.4321 C.3     1  UNL111      0.1398
     11 C         117.1357  154.5947  146.1057 C.3     1  UNL111     -0.0244
     12 C         120.4231  153.5684  146.4097 C.3     1  UNL111      0.0281
     13 C         118.7381  151.4995  147.9757 C.3     1  UNL111     -0.0057
     14 C         118.0685  154.6837  144.8844 C.3     1  UNL111     -0.0448
     15 C         118.8560  154.6633  147.9983 C.3     1  UNL111     -0.0157
     16 C         120.2134  154.5379  147.3693 C.3     1  UNL111     -0.0446
     17 C         119.3996  150.2180  147.4774 C.3     1  UNL111      0.0347
     18 C         120.5683  150.5057  146.5617 C.2     1  UNL111      0.1297
     19 C         121.6738  153.2595  145.9054 C.3     1  UNL111      0.1104
     20 C         121.3273  155.2788  147.7606 C.3     1  UNL111     -0.0587
     21 C         122.7905  153.9892  146.2633 C.3     1  UNL111      0.0933
     22 C         122.5996  155.0193  147.1968 C.3     1  UNL111     -0.0132
     23 C         114.6435  154.2183  146.4656 C.3     1  UNL111     -0.0410
     24 C         125.1385  154.3164  146.1143 C.3     1  UNL111      0.0331
     25 H         117.3521  150.8103  146.0357 H       1  UNL111      0.2397
     26 H         116.0341  152.8953  145.6830 H       1  UNL111      0.1347
     27 H         115.6547  154.1430  144.6783 H       1  UNL111      0.1347
     28 H         116.9580  153.6476  148.0406 H       1  UNL111      0.0702
     29 H         118.1206  152.6955  144.0321 H       1  UNL111      0.0460
     30 H         119.5962  153.6099  143.8163 H       1  UNL111      0.0460
     31 H         119.9879  150.9729  144.5620 H       1  UNL111      0.1619
     32 H         116.8475  155.6083  146.4077 H       1  UNL111      0.0822
     33 H         117.8753  151.2241  148.5946 H       1  UNL111      0.0529
     34 H         119.4458  152.0214  148.6291 H       1  UNL111      0.0529
     35 H         117.5188  155.0247  143.9981 H       1  UNL111      0.0480
     36 H         118.8121  155.4679  145.0743 H       1  UNL111      0.0480
     37 H         118.9426  154.3289  149.0400 H       1  UNL111      0.0531
     38 H         118.5546  155.7170  148.0247 H       1  UNL111      0.0531
     39 H         118.6967  149.5723  146.9423 H       1  UNL111      0.0704
     40 H         119.7678  149.6514  148.3404 H       1  UNL111      0.0704
     41 H         121.2392  156.0561  148.5180 H       1  UNL111      0.0936
     42 H         123.4326  155.6303  147.5346 H       1  UNL111      0.1142
     43 H         114.8004  153.8680  147.4873 H       1  UNL111      0.0663
     44 H         113.8096  153.6826  146.0066 H       1  UNL111      0.0663
     45 H         114.4670  155.2959  146.4364 H       1  UNL111      0.0663
     46 H         125.9939  153.8847  145.5860 H       1  UNL111      0.1074
     47 H         125.3068  154.1817  147.1880 H       1  UNL111      0.1074
     48 H         125.0865  155.3786  145.8535 H       1  UNL111      0.1074
@<TRIPOS>UNITY_ATOM_ATTR
5 1
charge 1
@<TRIPOS>BOND
     1     1    10    1
     2     1    19    1
     3     2     7    1
     4     3    18    2
     5     4    21    1
     6     4    24    1
     7     5    11    1
     8     5    23    1
     9     6     7    1
    10     6     9    1
    11     6    10    1
    12     6    12    1
    13     7     8    1
    14     7    13    1
    15     8    11    1
    16     8    15    1
    17     9    14    1
    18    10    18    1
    19    11    14    1
    20    12    16   ar
    21    12    19   ar
    22    13    17    1
    23    15    16    1
    24    16    20   ar
    25    17    18    1
    26    19    21   ar
    27    20    22   ar
    28    21    22   ar
    29     2    25    1
    30     5    26    1
    31     5    27    1
    32     8    28    1
    33     9    29    1
    34     9    30    1
    35    10    31    1
    36    11    32    1
    37    13    33    1
    38    13    34    1
    39    14    35    1
    40    14    36    1
    41    15    37    1
    42    15    38    1
    43    17    39    1
    44    17    40    1
    45    20    41    1
    46    22    42    1
    47    23    43    1
    48    23    44    1
    49    23    45    1
    50    24    46    1
    51    24    47    1
    52    24    48    1
@<TRIPOS>MOLECULE
158063059
 68 72 0 0 0
SMALL
GASTEIGER

@<TRIPOS>ATOM
      1 O         119.2755  153.8860  148.0687 O.2     1  UNL111     -0.5304
      2 O         115.5768  155.0636  145.6343 O.3     1  UNL111     -0.4342
      3 O         120.1816  156.0434  146.4061 O.3     1  UNL111     -0.4609
      4 O         121.0821  151.7498  148.5343 O.2     1  UNL111     -0.5683
      5 O         121.4377  154.2399  145.6562 O.2     1  UNL111     -0.3233
      6 O         123.7788  155.5043  146.7648 O.3     1  UNL111     -0.4191
      7 O         124.7704  152.6501  146.7659 O.3     1  UNL111     -0.4504
      8 O         125.3225  151.4692  144.0790 O.3     1  UNL111     -0.4625
      9 N         114.5269  152.7394  146.3284 N.4     1  UNL111      0.4302
     10 C         117.1713  153.7326  146.9025 C.3     1  UNL111      0.0833
     11 C         116.5151  153.9578  145.5313 C.3     1  UNL111      0.0529
     12 C         115.6444  152.6880  145.2540 C.3     1  UNL111      0.0023
     13 C         118.3297  154.6757  147.2797 C.3     1  UNL111      0.1337
     14 C         116.1116  153.6504  148.0273 C.3     1  UNL111     -0.0174
     15 C         117.9413  152.4600  146.8796 C.3     1  UNL111      0.0338
     16 C         117.5047  154.2559  144.3877 C.3     1  UNL111      0.0084
     17 C         116.4194  151.3356  145.2643 C.3     1  UNL111     -0.0145
     18 C         115.0196  152.6177  147.7476 C.3     1  UNL111     -0.0333
     19 C         117.6061  151.3125  146.1889 C.3     1  UNL111     -0.0392
     20 C         119.1064  152.5972  147.6109 C.3     1  UNL111      0.1113
     21 C         119.0369  155.2911  146.0871 C.2     1  UNL111      0.0982
     22 C         118.6468  155.1329  144.8103 C.2     1  UNL111     -0.0269
     23 C         113.3452  151.8683  146.0387 C.3     1  UNL111     -0.0427
     24 C         118.4689  150.2269  146.3310 C.3     1  UNL111     -0.0567
     25 C         119.9764  151.5373  147.7667 C.3     1  UNL111      0.0934
     26 C         119.6338  150.3347  147.1284 C.3     1  UNL111     -0.0129
     27 C         121.3530  155.3352  146.1973 C.2     1  UNL111      0.2613
     28 C         122.1723  150.8608  148.3180 C.3     1  UNL111      0.0331
     29 C         122.5198  156.1599  146.7427 C.3     1  UNL111      0.1298
     30 C         123.9078  154.6057  147.8745 C.3     1  UNL111      0.0326
     31 C         125.1255  153.7069  147.6621 C.3     1  UNL111      0.0267
     32 C         125.9014  151.8576  146.3922 C.3     1  UNL111      0.0254
     33 C         125.4637  150.8284  145.3508 C.3     1  UNL111      0.0227
     34 C         124.7295  150.6106  143.1171 C.3     1  UNL111     -0.0027
     35 H         116.0757  155.8976  145.5050 H       1  UNL111      0.2440
     36 H         114.1946  153.7190  146.2387 H       1  UNL111      0.1350
     37 H         115.1094  152.8047  144.3034 H       1  UNL111      0.0970
     38 H         117.9742  155.4946  147.9175 H       1  UNL111      0.1609
     39 H         115.6426  154.6350  148.1545 H       1  UNL111      0.0565
     40 H         116.5727  153.4138  148.9953 H       1  UNL111      0.0565
     41 H         116.9724  154.7587  143.5708 H       1  UNL111      0.0637
     42 H         117.9323  153.3366  143.9727 H       1  UNL111      0.0637
     43 H         116.8009  151.1675  144.2488 H       1  UNL111      0.0633
     44 H         115.7543  150.4984  145.4978 H       1  UNL111      0.0633
     45 H         115.3658  151.5902  147.8969 H       1  UNL111      0.0743
     46 H         114.1618  152.7913  148.4066 H       1  UNL111      0.0743
     47 H         119.2407  155.5828  144.0154 H       1  UNL111      0.1025
     48 H         113.6295  150.8234  146.1798 H       1  UNL111      0.0670
     49 H         113.0243  152.0543  145.0109 H       1  UNL111      0.0670
     50 H         112.5457  152.1452  146.7312 H       1  UNL111      0.0670
     51 H         118.2746  149.2884  145.8142 H       1  UNL111      0.0940
     52 H         120.2713  149.4584  147.2142 H       1  UNL111      0.1142
     53 H         123.0423  151.2625  148.8460 H       1  UNL111      0.1074
     54 H         122.4277  150.7870  147.2555 H       1  UNL111      0.1074
     55 H         121.9556  149.8738  148.7392 H       1  UNL111      0.1074
     56 H         122.6266  157.0279  146.0834 H       1  UNL111      0.1437
     57 H         122.2720  156.5203  147.7479 H       1  UNL111      0.1437
     58 H         123.0026  153.9982  147.9795 H       1  UNL111      0.1007
     59 H         124.0490  155.2095  148.7773 H       1  UNL111      0.1007
     60 H         125.9568  154.2854  147.2439 H       1  UNL111      0.0998
     61 H         125.4267  153.2601  148.6154 H       1  UNL111      0.0998
     62 H         126.2738  151.3449  147.2854 H       1  UNL111      0.0997
     63 H         126.6843  152.5044  145.9809 H       1  UNL111      0.0997
     64 H         126.2256  150.0471  145.2590 H       1  UNL111      0.0991
     65 H         124.5081  150.3787  145.6440 H       1  UNL111      0.0991
     66 H         124.6860  151.1408  142.1619 H       1  UNL111      0.0817
     67 H         123.7096  150.3500  143.4163 H       1  UNL111      0.0817
     68 H         125.3283  149.7040  142.9886 H       1  UNL111      0.0817
@<TRIPOS>UNITY_ATOM_ATTR
9 1
charge 1
@<TRIPOS>BOND
     1     1    13    1
     2     1    20    1
     3     2    11    1
     4     3    21    1
     5     3    27    1
     6     4    25    1
     7     4    28    1
     8     5    27    2
     9     6    29    1
    10     6    30    1
    11     7    31    1
    12     7    32    1
    13     8    33    1
    14     8    34    1
    15     9    12    1
    16     9    18    1
    17     9    23    1
    18    10    11    1
    19    10    13    1
    20    10    14    1
    21    10    15    1
    22    11    12    1
    23    11    16    1
    24    12    17    1
    25    13    21    1
    26    14    18    1
    27    15    19   ar
    28    15    20   ar
    29    16    22    1
    30    17    19    1
    31    19    24   ar
    32    20    25   ar
    33    21    22    2
    34    24    26   ar
    35    25    26   ar
    36    27    29    1
    37    30    31    1
    38    32    33    1
    39     2    35    1
    40     9    36    1
    41    12    37    1
    42    13    38    1
    43    14    39    1
    44    14    40    1
    45    16    41    1
    46    16    42    1
    47    17    43    1
    48    17    44    1
    49    18    45    1
    50    18    46    1
    51    22    47    1
    52    23    48    1
    53    23    49    1
    54    23    50    1
    55    24    51    1
    56    26    52    1
    57    28    53    1
    58    28    54    1
    59    28    55    1
    60    29    56    1
    61    29    57    1
    62    30    58    1
    63    30    59    1
    64    31    60    1
    65    31    61    1
    66    32    62    1
    67    32    63    1
    68    33    64    1
    69    33    65    1
    70    34    66    1
    71    34    67    1
    72    34    68    1
@<TRIPOS>MOLECULE
91750496
 50 54 0 0 0
SMALL
GASTEIGER

@<TRIPOS>ATOM
      1 O         118.1204  154.8220  146.1130 O.2     1  UNL111     -0.5279
      2 O         121.2639  153.2778  147.9591 O.3     1  UNL111     -0.5043
      3 O         120.2447  156.8568  145.1468 O.2     1  UNL111     -0.4033
      4 O         115.5483  153.7134  146.7664 O.2     1  UNL111     -0.5683
      5 O         123.2385  152.2200  148.3674 O.2     1  UNL111     -0.3411
      6 N         121.7188  151.5807  144.5192 N.4     1  UNL111      0.4316
      7 C         120.0973  153.5702  145.8486 C.3     1  UNL111      0.0977
      8 C         121.4202  153.1586  146.5100 C.3     1  UNL111      0.0984
      9 C         121.6137  151.6555  146.0625 C.3     1  UNL111      0.0161
     10 C         119.5276  154.8857  146.3860 C.3     1  UNL111      0.1462
     11 C         120.1350  153.4838  144.2921 C.3     1  UNL111     -0.0139
     12 C         118.9868  152.7168  146.3085 C.3     1  UNL111      0.0378
     13 C         122.4677  154.2222  146.0785 C.3     1  UNL111      0.0122
     14 C         120.4456  150.7347  146.6169 C.3     1  UNL111     -0.0111
     15 C         120.5097  152.0978  143.7800 C.3     1  UNL111     -0.0320
     16 C         119.0783  151.3785  146.6179 C.3     1  UNL111     -0.0377
     17 C         121.9782  155.6712  146.3543 C.3     1  UNL111      0.0399
     18 C         120.5363  155.9226  145.8836 C.2     1  UNL111      0.1320
     19 C         117.8381  153.4883  146.3908 C.3     1  UNL111      0.1123
     20 C         122.1374  150.2208  144.0105 C.3     1  UNL111     -0.0420
     21 C         117.8826  150.7723  146.9852 C.3     1  UNL111     -0.0565
     22 C         116.6395  152.9026  146.7292 C.3     1  UNL111      0.0935
     23 C         116.6744  151.5247  147.0236 C.3     1  UNL111     -0.0129
     24 C         122.2427  152.7979  148.7741 C.2     1  UNL111      0.2152
     25 C         121.9332  153.0913  150.2081 C.3     1  UNL111      0.0551
     26 C         114.3075  153.1177  147.1231 C.3     1  UNL111      0.0331
     27 H         122.5096  152.1830  144.2535 H       1  UNL111      0.1361
     28 H         122.5675  151.2522  146.4104 H       1  UNL111      0.1029
     29 H         119.5953  154.9745  147.4831 H       1  UNL111      0.1635
     30 H         120.8461  154.2085  143.8796 H       1  UNL111      0.0574
     31 H         119.1658  153.7570  143.8535 H       1  UNL111      0.0574
     32 H         122.7094  154.1369  145.0147 H       1  UNL111      0.0614
     33 H         123.4128  154.0774  146.6130 H       1  UNL111      0.0614
     34 H         120.6850  150.4951  147.6610 H       1  UNL111      0.0642
     35 H         120.4012  149.7849  146.0770 H       1  UNL111      0.0642
     36 H         119.6998  151.3720  143.9025 H       1  UNL111      0.0745
     37 H         120.7737  152.1426  142.7176 H       1  UNL111      0.0745
     38 H         122.6422  156.3826  145.8516 H       1  UNL111      0.0716
     39 H         122.0163  155.8867  147.4281 H       1  UNL111      0.0716
     40 H         121.3045  149.5232  144.1176 H       1  UNL111      0.0671
     41 H         123.0081  149.8941  144.5842 H       1  UNL111      0.0671
     42 H         122.4077  150.3312  142.9567 H       1  UNL111      0.0671
     43 H         117.8518  149.7195  147.2618 H       1  UNL111      0.0940
     44 H         115.7691  150.9967  147.3153 H       1  UNL111      0.1142
     45 H         120.9013  152.8083  150.4326 H       1  UNL111      0.0793
     46 H         122.0908  154.1536  150.4081 H       1  UNL111      0.0793
     47 H         122.5941  152.5006  150.8485 H       1  UNL111      0.0793
     48 H         113.5414  153.8986  147.0980 H       1  UNL111      0.1074
     49 H         114.3419  152.7160  148.1411 H       1  UNL111      0.1074
     50 H         114.0201  152.3444  146.4031 H       1  UNL111      0.1074
@<TRIPOS>UNITY_ATOM_ATTR
6 1
charge 1
@<TRIPOS>BOND
     1     1    10    1
     2     1    19    1
     3     2     8    1
     4     2    24    1
     5     3    18    2
     6     4    22    1
     7     4    26    1
     8     5    24    2
     9     6     9    1
    10     6    15    1
    11     6    20    1
    12     7     8    1
    13     7    10    1
    14     7    11    1
    15     7    12    1
    16     8     9    1
    17     8    13    1
    18     9    14    1
    19    10    18    1
    20    11    15    1
    21    12    16   ar
    22    12    19   ar
    23    13    17    1
    24    14    16    1
    25    16    21   ar
    26    17    18    1
    27    19    22   ar
    28    21    23   ar
    29    22    23   ar
    30    24    25    1
    31     6    27    1
    32     9    28    1
    33    10    29    1
    34    11    30    1
    35    11    31    1
    36    13    32    1
    37    13    33    1
    38    14    34    1
    39    14    35    1
    40    15    36    1
    41    15    37    1
    42    17    38    1
    43    17    39    1
    44    20    40    1
    45    20    41    1
    46    20    42    1
    47    21    43    1
    48    23    44    1
    49    25    45    1
    50    25    46    1
    51    25    47    1
    52    26    48    1
    53    26    49    1
    54    26    50    1
@<TRIPOS>MOLECULE
5284604
 42 46 0 0 0
SMALL
GASTEIGER

@<TRIPOS>ATOM
      1 O         117.8924  152.5281  147.7303 O.2     1  UNL111     -0.5290
      2 O         122.1928  151.2515  146.7395 O.3     1  UNL111     -0.4354
      3 O         117.5021  150.2935  146.1414 O.2     1  UNL111     -0.4035
      4 O         115.8965  154.5342  146.9970 O.2     1  UNL111     -0.5484
      5 N         122.8201  153.8302  146.8896 N.4     1  UNL111      0.4301
      6 C         120.2106  152.6063  147.0747 C.3     1  UNL111      0.0838
      7 C         121.2531  152.1142  146.0541 C.3     1  UNL111      0.0494
      8 C         122.0631  153.3816  145.6117 C.3     1  UNL111      0.0013
      9 C         119.0379  151.6701  147.4266 C.3     1  UNL111      0.1427
     10 C         120.9027  153.1602  148.3456 C.3     1  UNL111     -0.0175
     11 C         119.3992  153.6985  146.4721 C.3     1  UNL111      0.0335
     12 C         120.6195  151.3361  144.8936 C.3     1  UNL111     -0.0022
     13 C         121.2132  154.5250  144.9852 C.3     1  UNL111     -0.0147
     14 C         121.9332  154.2482  148.0378 C.3     1  UNL111     -0.0334
     15 C         119.8291  154.6447  145.5607 C.3     1  UNL111     -0.0392
     16 C         119.7681  150.1833  145.4182 C.3     1  UNL111      0.0363
     17 C         118.6522  150.7025  146.2950 C.2     1  UNL111      0.1306
     18 C         118.1016  153.6260  146.9331 C.3     1  UNL111      0.1104
     19 C         123.9396  154.7960  146.6426 C.3     1  UNL111     -0.0427
     20 C         118.8970  155.6076  145.1672 C.3     1  UNL111     -0.0569
     21 C         117.1804  154.5721  146.5597 C.3     1  UNL111      0.0925
     22 C         117.5815  155.5791  145.6808 C.3     1  UNL111     -0.0139
     23 H         122.4885  150.5341  146.1423 H       1  UNL111      0.2436
     24 H         115.7893  153.7071  147.5051 H       1  UNL111      0.3393
     25 H         123.2622  152.9496  147.2114 H       1  UNL111      0.1349
     26 H         122.8595  153.0857  144.9178 H       1  UNL111      0.0968
     27 H         119.2602  151.0597  148.3097 H       1  UNL111      0.1627
     28 H         121.3994  152.3378  148.8770 H       1  UNL111      0.0565
     29 H         120.1714  153.5702  149.0548 H       1  UNL111      0.0565
     30 H         121.4034  150.9238  144.2468 H       1  UNL111      0.0555
     31 H         120.0002  151.9894  144.2686 H       1  UNL111      0.0555
     32 H         121.0971  154.3013  143.9168 H       1  UNL111      0.0633
     33 H         121.7284  155.4877  145.0569 H       1  UNL111      0.0633
     34 H         121.4693  155.2036  147.7734 H       1  UNL111      0.0743
     35 H         122.5805  154.4085  148.9071 H       1  UNL111      0.0743
     36 H         120.3596  149.4674  145.9978 H       1  UNL111      0.0708
     37 H         119.3271  149.6448  144.5721 H       1  UNL111      0.0708
     38 H         123.5192  155.7704  146.3850 H       1  UNL111      0.0670
     39 H         124.5570  154.4051  145.8301 H       1  UNL111      0.0670
     40 H         124.5328  154.8641  147.5585 H       1  UNL111      0.0670
     41 H         119.1590  156.3805  144.4463 H       1  UNL111      0.0939
     42 H         116.8589  156.3291  145.3643 H       1  UNL111      0.1139
@<TRIPOS>UNITY_ATOM_ATTR
5 1
charge 1
@<TRIPOS>BOND
     1     1     9    1
     2     1    18    1
     3     2     7    1
     4     3    17    2
     5     4    21    1
     6     5     8    1
     7     5    14    1
     8     5    19    1
     9     6     7    1
    10     6     9    1
    11     6    10    1
    12     6    11    1
    13     7     8    1
    14     7    12    1
    15     8    13    1
    16     9    17    1
    17    10    14    1
    18    11    15   ar
    19    11    18   ar
    20    12    16    1
    21    13    15    1
    22    15    20   ar
    23    16    17    1
    24    18    21   ar
    25    20    22   ar
    26    21    22   ar
    27     2    23    1
    28     4    24    1
    29     5    25    1
    30     8    26    1
    31     9    27    1
    32    10    28    1
    33    10    29    1
    34    12    30    1
    35    12    31    1
    36    13    32    1
    37    13    33    1
    38    14    34    1
    39    14    35    1
    40    16    36    1
    41    16    37    1
    42    19    38    1
    43    19    39    1
    44    19    40    1
    45    20    41    1
    46    22    42    1
@<TRIPOS>MOLECULE
139025660
 46 50 0 0 0
SMALL
GASTEIGER

@<TRIPOS>ATOM
      1 O         121.4761  154.2505  147.6300 O.2     1  UNL111     -0.5285
      2 O         117.0101  154.6532  146.6449 O.3     1  UNL111     -0.4337
      3 O         118.1018  150.1563  145.3541 O.3     1  UNL111     -0.4346
      4 O         121.4628  156.3501  145.7924 O.2     1  UNL111     -0.4035
      5 O         123.7846  152.6963  147.1146 O.2     1  UNL111     -0.5683
      6 N         117.0005  151.8019  147.0419 N.4     1  UNL111      0.4331
      7 C         119.2257  153.6982  147.0346 C.3     1  UNL111      0.0870
      8 C         118.0796  153.9047  146.0398 C.3     1  UNL111      0.0571
      9 C         117.5304  152.4741  145.7280 C.3     1  UNL111      0.0277
     10 C         120.2085  154.8608  147.2564 C.3     1  UNL111      0.1432
     11 C         118.6731  153.1443  148.3711 C.3     1  UNL111     -0.0168
     12 C         120.2209  152.7299  146.4809 C.3     1  UNL111      0.0437
     13 C         118.5179  154.6642  144.7774 C.3     1  UNL111     -0.0007
     14 C         118.5756  151.4849  145.0876 C.3     1  UNL111      0.0521
     15 C         117.9522  151.8069  148.2091 C.3     1  UNL111     -0.0316
     16 C         119.9692  151.6642  145.6331 C.3     1  UNL111     -0.0068
     17 C         119.2152  155.9787  145.1170 C.3     1  UNL111      0.0365
     18 C         120.4105  155.7537  146.0155 C.2     1  UNL111      0.1306
     19 C         121.4896  153.0708  146.9170 C.3     1  UNL111      0.1133
     20 C         115.6014  152.1921  147.4158 C.3     1  UNL111     -0.0410
     21 C         121.0717  150.8821  145.2817 C.3     1  UNL111     -0.0467
     22 C         122.5888  152.2967  146.6036 C.3     1  UNL111      0.0938
     23 C         122.3629  151.1847  145.7799 C.3     1  UNL111     -0.0111
     24 C         124.9394  151.9658  146.7223 C.3     1  UNL111      0.0331
     25 H         117.2559  155.5852  146.7894 H       1  UNL111      0.2439
     26 H         118.6857  149.5373  144.8732 H       1  UNL111      0.2440
     27 H         116.9468  150.8073  146.7481 H       1  UNL111      0.1375
     28 H         116.6505  152.5216  145.0752 H       1  UNL111      0.1102
     29 H         119.8789  155.5152  148.0721 H       1  UNL111      0.1627
     30 H         117.9893  153.8752  148.8208 H       1  UNL111      0.0566
     31 H         119.4783  153.0072  149.1052 H       1  UNL111      0.0566
     32 H         117.6405  154.8889  144.1585 H       1  UNL111      0.0557
     33 H         119.1939  154.0583  144.1637 H       1  UNL111      0.0557
     34 H         118.5921  151.6424  144.0028 H       1  UNL111      0.1244
     35 H         118.6640  150.9919  148.0402 H       1  UNL111      0.0746
     36 H         117.3864  151.5507  149.1118 H       1  UNL111      0.0746
     37 H         118.5428  156.6885  145.6081 H       1  UNL111      0.0708
     38 H         119.5618  156.4475  144.1889 H       1  UNL111      0.0708
     39 H         115.6101  153.1659  147.9075 H       1  UNL111      0.0672
     40 H         115.2215  151.4316  148.1041 H       1  UNL111      0.0672
     41 H         114.9858  152.2037  146.5133 H       1  UNL111      0.0672
     42 H         120.9686  150.0335  144.6076 H       1  UNL111      0.0962
     43 H         123.1831  150.5361  145.4813 H       1  UNL111      0.1144
     44 H         125.8095  152.4390  147.1872 H       1  UNL111      0.1074
     45 H         125.0798  152.0008  145.6368 H       1  UNL111      0.1074
     46 H         124.8899  150.9322  147.0804 H       1  UNL111      0.1074
@<TRIPOS>UNITY_ATOM_ATTR
6 1
charge 1
@<TRIPOS>BOND
     1     1    10    1
     2     1    19    1
     3     2     8    1
     4     3    14    1
     5     4    18    2
     6     5    22    1
     7     5    24    1
     8     6     9    1
     9     6    15    1
    10     6    20    1
    11     7     8    1
    12     7    10    1
    13     7    11    1
    14     7    12    1
    15     8     9    1
    16     8    13    1
    17     9    14    1
    18    10    18    1
    19    11    15    1
    20    12    16   ar
    21    12    19   ar
    22    13    17    1
    23    14    16    1
    24    16    21   ar
    25    17    18    1
    26    19    22   ar
    27    21    23   ar
    28    22    23   ar
    29     2    25    1
    30     3    26    1
    31     6    27    1
    32     9    28    1
    33    10    29    1
    34    11    30    1
    35    11    31    1
    36    13    32    1
    37    13    33    1
    38    14    34    1
    39    15    35    1
    40    15    36    1
    41    17    37    1
    42    17    38    1
    43    20    39    1
    44    20    40    1
    45    20    41    1
    46    21    42    1
    47    23    43    1
    48    24    44    1
    49    24    45    1
    50    24    46    1
@<TRIPOS>MOLECULE
46829687
 46 50 0 0 0
SMALL
GASTEIGER

@<TRIPOS>ATOM
      1 O         121.4447  154.0110  147.8555 O.2     1  UNL111     -0.5283
      2 O         116.9441  154.3001  147.0767 O.3     1  UNL111     -0.4261
      3 O         118.5584  151.9714  143.5797 O.3     1  UNL111     -0.4376
      4 O         121.2296  156.4244  146.4610 O.2     1  UNL111     -0.4014
      5 O         123.8066  152.6685  147.0575 O.2     1  UNL111     -0.5683
      6 N         116.9528  151.6520  146.9650 N.4     1  UNL111      0.4309
      7 C         119.2074  153.4446  147.2110 C.3     1  UNL111      0.0911
      8 C         118.0294  153.7665  146.2754 C.3     1  UNL111      0.0742
      9 C         117.5272  152.3889  145.7222 C.3     1  UNL111      0.0088
     10 C         120.1296  154.5994  147.6425 C.3     1  UNL111      0.1458
     11 C         118.7279  152.6166  148.4327 C.3     1  UNL111     -0.0160
     12 C         120.2352  152.6508  146.4797 C.3     1  UNL111      0.0353
     13 C         118.3966  154.7951  145.1981 C.3     1  UNL111      0.0624
     14 C         118.6123  151.5577  144.9445 C.3     1  UNL111     -0.0133
     15 C         117.9666  151.3497  148.0392 C.3     1  UNL111     -0.0330
     16 C         120.0107  151.7261  145.4783 C.3     1  UNL111     -0.0388
     17 C         118.9646  156.0607  145.8330 C.3     1  UNL111      0.0614
     18 C         120.2198  155.7388  146.6107 C.2     1  UNL111      0.1394
     19 C         121.4956  152.9757  146.9479 C.3     1  UNL111      0.1117
     20 C         116.0790  150.4814  146.6322 C.3     1  UNL111     -0.0425
     21 C         121.1325  151.0411  145.0063 C.3     1  UNL111     -0.0566
     22 C         122.6183  152.3065  146.5025 C.3     1  UNL111      0.0934
     23 C         122.4205  151.3210  145.5239 C.3     1  UNL111     -0.0129
     24 C         124.9799  152.0405  146.5577 C.3     1  UNL111      0.0331
     25 H         116.4463  154.9663  146.5596 H       1  UNL111      0.2466
     26 H         119.4381  151.8655  143.1706 H       1  UNL111      0.2398
     27 H         116.3326  152.3703  147.3826 H       1  UNL111      0.1352
     28 H         116.6533  152.5652  145.0816 H       1  UNL111      0.0989
     29 H         119.7934  155.0505  148.5836 H       1  UNL111      0.1631
     30 H         118.0795  153.2405  149.0619 H       1  UNL111      0.0567
     31 H         119.5690  152.3254  149.0758 H       1  UNL111      0.0567
     32 H         117.5062  155.0646  144.6174 H       1  UNL111      0.1161
     33 H         119.1302  154.3904  144.4926 H       1  UNL111      0.0635
     34 H         118.3539  150.4946  144.9597 H       1  UNL111      0.0635
     35 H         118.6290  150.5639  147.6627 H       1  UNL111      0.0743
     36 H         117.4191  150.9558  148.9025 H       1  UNL111      0.0743
     37 H         118.2492  156.5395  146.5092 H       1  UNL111      0.0837
     38 H         119.2141  156.7809  145.0459 H       1  UNL111      0.0837
     39 H         116.7024  149.6688  146.2535 H       1  UNL111      0.0670
     40 H         115.3483  150.7996  145.8847 H       1  UNL111      0.0670
     41 H         115.5644  150.1758  147.5471 H       1  UNL111      0.0670
     42 H         121.0396  150.2837  144.2286 H       1  UNL111      0.0940
     43 H         123.2589  150.7556  145.1239 H       1  UNL111      0.1142
     44 H         125.8386  152.4648  147.0867 H       1  UNL111      0.1074
     45 H         125.1117  152.2421  145.4895 H       1  UNL111      0.1074
     46 H         124.9639  150.9639  146.7569 H       1  UNL111      0.1074
@<TRIPOS>UNITY_ATOM_ATTR
6 1
charge 1
@<TRIPOS>BOND
     1     1    10    1
     2     1    19    1
     3     2     8    1
     4     3    13    1
     5     4    18    2
     6     5    22    1
     7     5    24    1
     8     6     9    1
     9     6    15    1
    10     6    20    1
    11     7     8    1
    12     7    10    1
    13     7    11    1
    14     7    12    1
    15     8     9    1
    16     8    13    1
    17     9    14    1
    18    10    18    1
    19    11    15    1
    20    12    16   ar
    21    12    19   ar
    22    13    17    1
    23    14    16    1
    24    16    21   ar
    25    17    18    1
    26    19    22   ar
    27    21    23   ar
    28    22    23   ar
    29     2    25    1
    30     3    26    1
    31     6    27    1
    32     9    28    1
    33    10    29    1
    34    11    30    1
    35    11    31    1
    36    13    32    1
    37    14    33    1
    38    14    34    1
    39    15    35    1
    40    15    36    1
    41    17    37    1
    42    17    38    1
    43    20    39    1
    44    20    40    1
    45    20    41    1
    46    21    42    1
    47    23    43    1
    48    24    44    1
    49    24    45    1
    50    24    46    1
@<TRIPOS>MOLECULE
5284569
 44 48 0 0 0
SMALL
GASTEIGER

@<TRIPOS>ATOM
      1 O         118.3138  152.1355  147.6608 O.2     1  UNL111     -0.5307
      2 O         118.2295  149.8441  146.0280 O.2     1  UNL111     -0.4040
      3 O         116.1425  153.8398  147.0204 O.2     1  UNL111     -0.5683
      4 N         123.0587  154.0218  146.9158 N.4     1  UNL111      0.4270
      5 C         120.6076  152.4711  147.0449 C.3     1  UNL111      0.0597
      6 C         121.7261  152.1214  146.0579 C.3     1  UNL111     -0.0136
      7 C         122.4032  153.4554  145.6367 C.3     1  UNL111     -0.0250
      8 C         119.5372  151.4090  147.3600 C.3     1  UNL111      0.1355
      9 C         121.2292  153.0692  148.3271 C.3     1  UNL111     -0.0250
     10 C         119.6938  153.4744  146.4343 C.3     1  UNL111      0.0248
     11 C         121.2243  151.2845  144.8751 C.3     1  UNL111     -0.0274
     12 C         121.4304  154.4779  144.9647 C.3     1  UNL111     -0.0224
     13 C         122.0966  154.2968  148.0518 C.3     1  UNL111     -0.0366
     14 C         120.0353  154.4576  145.5273 C.3     1  UNL111     -0.0426
     15 C         120.5122  150.0351  145.3773 C.3     1  UNL111      0.0289
     16 C         119.3074  150.4065  146.2135 C.2     1  UNL111      0.1274
     17 C         118.4006  153.2645  146.8759 C.3     1  UNL111      0.1094
     18 C         123.9707  155.1969  146.6648 C.3     1  UNL111     -0.0445
     19 C         119.0117  155.3115  145.1194 C.3     1  UNL111     -0.0571
     20 C         117.3723  154.1069  146.5019 C.3     1  UNL111      0.0931
     21 C         117.6967  155.1478  145.6183 C.3     1  UNL111     -0.0129
     22 C         115.0525  154.6187  146.5451 C.3     1  UNL111      0.0331
     23 H         123.6916  153.2844  147.2555 H       1  UNL111      0.1324
     24 H         122.4709  151.5003  146.5777 H       1  UNL111      0.0627
     25 H         123.2400  153.2500  144.9583 H       1  UNL111      0.0835
     26 H         119.8148  150.8181  148.2412 H       1  UNL111      0.1606
     27 H         121.8433  152.3007  148.8154 H       1  UNL111      0.0545
     28 H         120.4566  153.3484  149.0553 H       1  UNL111      0.0545
     29 H         122.0745  150.9917  144.2479 H       1  UNL111      0.0427
     30 H         120.5445  151.8597  144.2364 H       1  UNL111      0.0427
     31 H         121.3512  154.2075  143.9036 H       1  UNL111      0.0613
     32 H         121.8292  155.4956  145.0013 H       1  UNL111      0.0613
     33 H         121.5050  155.1790  147.7880 H       1  UNL111      0.0738
     34 H         122.7006  154.5379  148.9335 H       1  UNL111      0.0738
     35 H         121.1773  149.4123  145.9850 H       1  UNL111      0.0688
     36 H         120.1763  149.4380  144.5226 H       1  UNL111      0.0688
     37 H         123.3682  156.0790  146.4394 H       1  UNL111      0.0667
     38 H         124.6331  154.9432  145.8336 H       1  UNL111      0.0667
     39 H         124.5590  155.3593  147.5721 H       1  UNL111      0.0667
     40 H         119.2012  156.1043  144.3972 H       1  UNL111      0.0939
     41 H         116.9366  155.8433  145.2713 H       1  UNL111      0.1142
     42 H         114.1404  154.2427  147.0184 H       1  UNL111      0.1074
     43 H         114.9338  154.5149  145.4614 H       1  UNL111      0.1074
     44 H         115.1680  155.6694  146.8305 H       1  UNL111      0.1074
@<TRIPOS>UNITY_ATOM_ATTR
4 1
charge 1
@<TRIPOS>BOND
     1     1     8    1
     2     1    17    1
     3     2    16    2
     4     3    20    1
     5     3    22    1
     6     4     7    1
     7     4    13    1
     8     4    18    1
     9     5     6    1
    10     5     8    1
    11     5     9    1
    12     5    10    1
    13     6     7    1
    14     6    11    1
    15     7    12    1
    16     8    16    1
    17     9    13    1
    18    10    14   ar
    19    10    17   ar
    20    11    15    1
    21    12    14    1
    22    14    19   ar
    23    15    16    1
    24    17    20   ar
    25    19    21   ar
    26    20    21   ar
    27     4    23    1
    28     6    24    1
    29     7    25    1
    30     8    26    1
    31     9    27    1
    32     9    28    1
    33    11    29    1
    34    11    30    1
    35    12    31    1
    36    12    32    1
    37    13    33    1
    38    13    34    1
    39    15    35    1
    40    15    36    1
    41    18    37    1
    42    18    38    1
    43    18    39    1
    44    19    40    1
    45    21    41    1
    46    22    42    1
    47    22    43    1
    48    22    44    1
@<TRIPOS>MOLECULE
21144070
 46 50 0 0 0
SMALL
GASTEIGER

@<TRIPOS>ATOM
      1 O         121.5405  154.0208  147.7598 O.2     1  UNL111     -0.5283
      2 O         116.9954  154.0474  147.1241 O.3     1  UNL111     -0.4261
      3 O         117.1155  154.8175  144.5560 O.3     1  UNL111     -0.4376
      4 O         121.1392  156.3738  146.3204 O.2     1  UNL111     -0.4014
      5 O         123.9420  152.8257  146.8442 O.2     1  UNL111     -0.5683
      6 N         117.1628  151.3948  147.0598 N.4     1  UNL111      0.4309
      7 C         119.3140  153.3154  147.2213 C.3     1  UNL111      0.0911
      8 C         118.0995  153.5528  146.3167 C.3     1  UNL111      0.0742
      9 C         117.6469  152.1523  145.7909 C.3     1  UNL111      0.0088
     10 C         120.1845  154.5277  147.5967 C.3     1  UNL111      0.1458
     11 C         118.9183  152.4827  148.4661 C.3     1  UNL111     -0.0160
     12 C         120.3545  152.5665  146.4645 C.3     1  UNL111      0.0353
     13 C         118.3692  154.5855  145.2064 C.3     1  UNL111      0.0624
     14 C         118.7356  151.3673  145.0043 C.3     1  UNL111     -0.0133
     15 C         118.2236  151.1673  148.1084 C.3     1  UNL111     -0.0330
     16 C         120.1386  151.6186  145.4849 C.3     1  UNL111     -0.0388
     17 C         118.8745  155.8904  145.8085 C.3     1  UNL111      0.0614
     18 C         120.1708  155.6477  146.5386 C.2     1  UNL111      0.1394
     19 C         121.6129  152.9756  146.8649 C.3     1  UNL111      0.1117
     20 C         116.3476  150.1700  146.7780 C.3     1  UNL111     -0.0425
     21 C         121.2725  151.0128  144.9464 C.3     1  UNL111     -0.0566
     22 C         122.7512  152.3788  146.3607 C.3     1  UNL111      0.0934
     23 C         122.5654  151.3784  145.3941 C.3     1  UNL111     -0.0129
     24 C         125.1240  152.2891  146.2646 C.3     1  UNL111      0.0331
     25 H         116.4140  154.5529  146.5084 H       1  UNL111      0.2466
     26 H         117.2558  155.4953  143.8623 H       1  UNL111      0.2398
     27 H         116.5137  152.0800  147.4899 H       1  UNL111      0.1352
     28 H         116.7417  152.2492  145.1795 H       1  UNL111      0.0989
     29 H         119.8628  154.9779  148.5431 H       1  UNL111      0.1631
     30 H         118.2505  153.0772  149.1032 H       1  UNL111      0.0567
     31 H         119.7923  152.2515  149.0892 H       1  UNL111      0.0567
     32 H         119.0763  154.2059  144.4613 H       1  UNL111      0.1161
     33 H         118.6911  151.6997  143.9591 H       1  UNL111      0.0635
     34 H         118.5304  150.2925  145.0084 H       1  UNL111      0.0635
     35 H         118.9201  150.4161  147.7232 H       1  UNL111      0.0743
     36 H         117.7247  150.7541  148.9918 H       1  UNL111      0.0743
     37 H         118.1513  156.3386  146.4985 H       1  UNL111      0.0837
     38 H         119.0395  156.6249  145.0117 H       1  UNL111      0.0837
     39 H         117.0040  149.3861  146.3946 H       1  UNL111      0.0670
     40 H         115.5764  150.4306  146.0490 H       1  UNL111      0.0670
     41 H         115.8799  149.8546  147.7146 H       1  UNL111      0.0670
     42 H         121.1847  150.2593  144.1647 H       1  UNL111      0.0940
     43 H         123.4155  150.8703  144.9454 H       1  UNL111      0.1142
     44 H         125.9811  152.7782  146.7374 H       1  UNL111      0.1074
     45 H         125.1689  152.5003  145.1910 H       1  UNL111      0.1074
     46 H         125.2037  151.2145  146.4590 H       1  UNL111      0.1074
@<TRIPOS>UNITY_ATOM_ATTR
6 1
charge 1
@<TRIPOS>BOND
     1     1    10    1
     2     1    19    1
     3     2     8    1
     4     3    13    1
     5     4    18    2
     6     5    22    1
     7     5    24    1
     8     6     9    1
     9     6    15    1
    10     6    20    1
    11     7     8    1
    12     7    10    1
    13     7    11    1
    14     7    12    1
    15     8     9    1
    16     8    13    1
    17     9    14    1
    18    10    18    1
    19    11    15    1
    20    12    16   ar
    21    12    19   ar
    22    13    17    1
    23    14    16    1
    24    16    21   ar
    25    17    18    1
    26    19    22   ar
    27    21    23   ar
    28    22    23   ar
    29     2    25    1
    30     3    26    1
    31     6    27    1
    32     9    28    1
    33    10    29    1
    34    11    30    1
    35    11    31    1
    36    13    32    1
    37    14    33    1
    38    14    34    1
    39    15    35    1
    40    15    36    1
    41    17    37    1
    42    17    38    1
    43    20    39    1
    44    20    40    1
    45    20    41    1
    46    21    42    1
    47    23    43    1
    48    24    44    1
    49    24    45    1
    50    24    46    1
@<TRIPOS>MOLECULE
21677760
 45 49 0 0 0
SMALL
GASTEIGER

@<TRIPOS>ATOM
      1 O         118.2777  154.0759  145.1193 O.2     1  UNL111     -0.5288
      2 O         122.7583  154.4454  146.0258 O.3     1  UNL111     -0.4354
      3 O         118.3800  156.3694  146.7135 O.2     1  UNL111     -0.4035
      4 O         115.9507  152.6011  145.7831 O.2     1  UNL111     -0.5683
      5 N         122.8264  151.7957  145.9062 N.4     1  UNL111      0.4301
      6 C         120.5263  153.5343  145.7526 C.3     1  UNL111      0.0838
      7 C         121.6716  153.8107  146.7435 C.3     1  UNL111      0.0494
      8 C         122.2084  152.4080  147.1906 C.3     1  UNL111      0.0013
      9 C         121.0606  152.8357  144.4763 C.3     1  UNL111     -0.0175
     10 C         119.5673  154.6882  145.4092 C.3     1  UNL111      0.1428
     11 C         119.5174  152.6397  146.3849 C.3     1  UNL111      0.0337
     12 C         121.2425  154.7154  147.9050 C.3     1  UNL111     -0.0022
     13 C         121.8473  151.5602  144.7810 C.3     1  UNL111     -0.0334
     14 C         121.1524  151.4768  147.8530 C.3     1  UNL111     -0.0147
     15 C         119.7629  151.6391  147.3029 C.3     1  UNL111     -0.0392
     16 C         120.6328  156.0119  147.3816 C.3     1  UNL111      0.0363
     17 C         119.4125  155.7246  146.5374 C.2     1  UNL111      0.1306
     18 C         118.2517  152.9636  145.9321 C.3     1  UNL111      0.1114
     19 C         123.7261  150.6219  146.1463 C.3     1  UNL111     -0.0427
     20 C         118.6613  150.8938  147.7198 C.3     1  UNL111     -0.0567
     21 C         117.1470  152.2286  146.3139 C.3     1  UNL111      0.0934
     22 C         117.3685  151.1762  147.2154 C.3     1  UNL111     -0.0129
     23 C         114.7914  151.9236  146.2494 C.3     1  UNL111      0.0331
     24 H         123.1680  155.1416  146.5786 H       1  UNL111      0.2436
     25 H         123.4337  152.5628  145.5631 H       1  UNL111      0.1349
     26 H         123.0643  152.5390  147.8642 H       1  UNL111      0.0968
     27 H         121.7062  153.5310  143.9240 H       1  UNL111      0.0565
     28 H         120.2455  152.5799  143.7865 H       1  UNL111      0.0565
     29 H         119.9016  155.2352  144.5197 H       1  UNL111      0.1627
     30 H         122.1111  154.9645  148.5265 H       1  UNL111      0.0555
     31 H         120.5183  154.2110  148.5547 H       1  UNL111      0.0555
     32 H         121.2003  150.7255  145.0682 H       1  UNL111      0.0743
     33 H         122.4283  151.2590  143.9023 H       1  UNL111      0.0743
     34 H         121.1072  151.7352  148.9190 H       1  UNL111      0.0633
     35 H         121.4551  150.4271  147.7904 H       1  UNL111      0.0633
     36 H         121.3435  156.5857  146.7781 H       1  UNL111      0.0708
     37 H         120.3331  156.6382  148.2292 H       1  UNL111      0.0708
     38 H         123.1185  149.7594  146.4284 H       1  UNL111      0.0670
     39 H         124.4298  150.8852  146.9397 H       1  UNL111      0.0670
     40 H         124.2709  150.4208  145.2200 H       1  UNL111      0.0670
     41 H         118.7732  150.0924  148.4490 H       1  UNL111      0.0940
     42 H         116.5449  150.5604  147.5684 H       1  UNL111      0.1142
     43 H         113.9217  152.3697  145.7574 H       1  UNL111      0.1074
     44 H         114.6664  152.0511  147.3298 H       1  UNL111      0.1074
     45 H         114.8208  150.8632  145.9782 H       1  UNL111      0.1074
@<TRIPOS>UNITY_ATOM_ATTR
5 1
charge 1
@<TRIPOS>BOND
     1     1    10    1
     2     1    18    1
     3     2     7    1
     4     3    17    2
     5     4    21    1
     6     4    23    1
     7     5     8    1
     8     5    13    1
     9     5    19    1
    10     6     7    1
    11     6     9    1
    12     6    10    1
    13     6    11    1
    14     7     8    1
    15     7    12    1
    16     8    14    1
    17     9    13    1
    18    10    17    1
    19    11    15   ar
    20    11    18   ar
    21    12    16    1
    22    14    15    1
    23    15    20   ar
    24    16    17    1
    25    18    21   ar
    26    20    22   ar
    27    21    22   ar
    28     2    24    1
    29     5    25    1
    30     8    26    1
    31     9    27    1
    32     9    28    1
    33    10    29    1
    34    12    30    1
    35    12    31    1
    36    13    32    1
    37    13    33    1
    38    14    34    1
    39    14    35    1
    40    16    36    1
    41    16    37    1
    42    19    38    1
    43    19    39    1
    44    19    40    1
    45    20    41    1
    46    22    42    1
    47    23    43    1
    48    23    44    1
    49    23    45    1
@<TRIPOS>MOLECULE
5360241
 47 51 0 0 0
SMALL
GASTEIGER

@<TRIPOS>ATOM
      1 O         118.2585  154.0097  144.9761 O.3     1  UNL111     -0.5436
      2 O         122.7580  154.5661  145.9576 O.3     1  UNL111     -0.4361
      3 O         118.3141  155.2946  147.4089 O.3     1  UNL111     -0.4412
      4 O         116.0075  152.2979  145.5724 O.3     1  UNL111     -0.5684
      5 N         122.8859  151.9797  146.0214 N.4     1  UNL111      0.4300
      6 C         120.5229  153.6119  145.7072 C.3     1  UNL111      0.0716
      7 C         121.6389  153.9918  146.6940 C.3     1  UNL111      0.0452
      8 C         122.1983  152.6396  147.2511 C.3     1  UNL111      0.0007
      9 C         119.5084  154.7040  145.3142 C.3     1  UNL111      0.0914
     10 C         121.1280  152.8853  144.4763 C.3     1  UNL111     -0.0197
     11 C         119.5423  152.6763  146.3217 C.ar    1  UNL111      0.0306
     12 C         121.2065  154.9892  147.7719 C.3     1  UNL111     -0.0145
     13 C         119.2193  155.7708  146.4103 C.3     1  UNL111      0.0465
     14 C         121.1606  151.7032  147.9301 C.3     1  UNL111     -0.0148
     15 C         120.4819  156.1981  147.1544 C.3     1  UNL111     -0.0161
     16 C         121.9662  151.6620  144.8668 C.3     1  UNL111     -0.0337
     17 C         119.8010  151.7295  147.2926 C.ar    1  UNL111     -0.0396
     18 C         118.2864  152.8902  145.7834 C.ar    1  UNL111      0.1074
     19 C         123.8195  150.8606  146.3552 C.3     1  UNL111     -0.0427
     20 C         118.7368  150.9093  147.6699 C.ar    1  UNL111     -0.0567
     21 C         117.2240  152.0960  146.1504 C.ar    1  UNL111      0.0928
     22 C         117.4622  151.0756  147.0818 C.ar    1  UNL111     -0.0130
     23 C         115.0127  152.6529  146.5315 C.3     1  UNL111      0.0331
     24 H         122.7059  155.5412  145.9762 H       1  UNL111      0.2435
     25 H         117.4825  155.0708  146.9466 H       1  UNL111      0.2393
     26 H         123.4742  152.7626  145.6768 H       1  UNL111      0.1349
     27 H         123.0251  152.8406  147.9438 H       1  UNL111      0.0967
     28 H         119.8597  155.2264  144.4154 H       1  UNL111      0.1414
     29 H         121.7555  153.5852  143.9094 H       1  UNL111      0.0561
     30 H         120.3492  152.5588  143.7742 H       1  UNL111      0.0561
     31 H         122.0871  155.3562  148.3133 H       1  UNL111      0.0523
     32 H         120.5550  154.5103  148.5115 H       1  UNL111      0.0523
     33 H         118.7402  156.6420  145.9496 H       1  UNL111      0.1119
     34 H         121.0356  152.0422  148.9665 H       1  UNL111      0.0633
     35 H         121.5297  150.6737  147.9724 H       1  UNL111      0.0633
     36 H         121.1428  156.7490  146.4775 H       1  UNL111      0.0501
     37 H         120.2141  156.8836  147.9681 H       1  UNL111      0.0501
     38 H         121.3484  150.8067  145.1578 H       1  UNL111      0.0743
     39 H         122.5973  151.3577  144.0245 H       1  UNL111      0.0743
     40 H         123.2357  149.9877  146.6548 H       1  UNL111      0.0670
     41 H         124.4782  151.1903  147.1625 H       1  UNL111      0.0670
     42 H         124.4110  150.6382  145.4631 H       1  UNL111      0.0670
     43 H         118.8682  150.1382  148.4273 H       1  UNL111      0.0940
     44 H         116.6551  150.4070  147.3732 H       1  UNL111      0.1142
     45 H         114.1111  152.9449  145.9847 H       1  UNL111      0.1074
     46 H         115.3345  153.5097  147.1346 H       1  UNL111      0.1074
     47 H         114.7560  151.8053  147.1745 H       1  UNL111      0.1074
@<TRIPOS>UNITY_ATOM_ATTR
5 1
charge 1
@<TRIPOS>BOND
     1     1     9    1
     2     1    18    1
     3     2     7    1
     4     3    13    1
     5     4    21    1
     6     4    23    1
     7     5     8    1
     8     5    16    1
     9     5    19    1
    10     6     7    1
    11     6     9    1
    12     6    10    1
    13     6    11    1
    14     7     8    1
    15     7    12    1
    16     8    14    1
    17     9    13    1
    18    10    16    1
    19    11    17   ar
    20    11    18   ar
    21    12    15    1
    22    13    15    1
    23    14    17    1
    24    17    20   ar
    25    18    21   ar
    26    20    22   ar
    27    21    22   ar
    28     2    24    1
    29     3    25    1
    30     5    26    1
    31     8    27    1
    32     9    28    1
    33    10    29    1
    34    10    30    1
    35    12    31    1
    36    12    32    1
    37    13    33    1
    38    14    34    1
    39    14    35    1
    40    15    36    1
    41    15    37    1
    42    16    38    1
    43    16    39    1
    44    19    40    1
    45    19    41    1
    46    19    42    1
    47    20    43    1
    48    22    44    1
    49    23    45    1
    50    23    46    1
    51    23    47    1
@<TRIPOS>MOLECULE
5324289
 45 49 0 0 0
SMALL
GASTEIGER

@<TRIPOS>ATOM
      1 O         118.6691  154.4555  145.6525 O.3     1  UNL111     -0.5313
      2 O         119.8162  156.8640  147.0124 O.2     1  UNL111     -0.5764
      3 O         116.0903  153.3631  145.8957 O.3     1  UNL111     -0.5683
      4 N         122.8272  151.1651  145.9924 N.4     1  UNL111      0.4294
      5 C         120.7714  153.2580  145.9924 C.3     1  UNL111      0.0761
      6 C         121.7098  153.0510  147.1523 C.2     1  UNL111     -0.0492
      7 C         122.1025  151.6004  147.2664 C.3     1  UNL111     -0.0050
      8 C         120.1063  154.6540  145.8149 C.3     1  UNL111      0.1261
      9 C         121.4466  152.8081  144.6817 C.3     1  UNL111     -0.0195
     10 C         119.5623  152.4512  146.3044 C.ar    1  UNL111      0.0315
     11 C         120.8486  150.6767  147.5084 C.3     1  UNL111     -0.0165
     12 C         122.0126  151.3933  144.7402 C.3     1  UNL111     -0.0339
     13 C         119.5536  151.2139  146.9347 C.ar    1  UNL111     -0.0395
     14 C         118.4140  153.1622  146.0342 C.ar    1  UNL111      0.1111
     15 C         120.4334  155.6237  146.9443 C.2     1  UNL111      0.0616
     16 C         121.9858  154.0383  148.0163 C.2     1  UNL111     -0.0564
     17 C         121.3202  155.3179  147.9081 C.2     1  UNL111     -0.0212
     18 C         118.3096  150.6202  147.1392 C.ar    1  UNL111     -0.0566
     19 C         124.2203  151.7339  145.8977 C.3     1  UNL111     -0.0431
     20 C         117.1665  152.5964  146.2302 C.ar    1  UNL111      0.0935
     21 C         117.1269  151.2983  146.7645 C.ar    1  UNL111     -0.0128
     22 C         119.4310  157.4609  145.7788 C.3     1  UNL111      0.0306
     23 C         114.8019  152.8366  146.1851 C.3     1  UNL111      0.0331
     24 H         122.9599  150.1484  146.0672 H       1  UNL111      0.1349
     25 H         122.8151  151.4294  148.0822 H       1  UNL111      0.0950
     26 H         120.4590  155.1108  144.8811 H       1  UNL111      0.1600
     27 H         122.2595  153.5053  144.4377 H       1  UNL111      0.0565
     28 H         120.7390  152.8592  143.8435 H       1  UNL111      0.0565
     29 H         120.7066  150.6023  148.5950 H       1  UNL111      0.0634
     30 H         121.0305  149.6630  147.1333 H       1  UNL111      0.0634
     31 H         121.2195  150.6385  144.7325 H       1  UNL111      0.0744
     32 H         122.6593  151.1879  143.8801 H       1  UNL111      0.0744
     33 H         122.6101  153.8857  148.8937 H       1  UNL111      0.0949
     34 H         121.5150  156.0425  148.6974 H       1  UNL111      0.1116
     35 H         118.2257  149.6517  147.6291 H       1  UNL111      0.0940
     36 H         124.1634  152.8197  145.7929 H       1  UNL111      0.0670
     37 H         124.7074  151.2856  145.0277 H       1  UNL111      0.0670
     38 H         124.7620  151.4560  146.8056 H       1  UNL111      0.0670
     39 H         116.1800  150.7979  146.9499 H       1  UNL111      0.1142
     40 H         119.1418  158.4959  145.9844 H       1  UNL111      0.1069
     41 H         118.5647  156.9536  145.3466 H       1  UNL111      0.1069
     42 H         120.2665  157.4790  145.0716 H       1  UNL111      0.1069
     43 H         114.0603  153.5863  145.8929 H       1  UNL111      0.1074
     44 H         114.6826  152.6495  147.2575 H       1  UNL111      0.1074
     45 H         114.6078  151.9305  145.6020 H       1  UNL111      0.1074
@<TRIPOS>UNITY_ATOM_ATTR
4 1
charge 1
@<TRIPOS>BOND
     1     1     8    1
     2     1    14    1
     3     2    15    1
     4     2    22    1
     5     3    20    1
     6     3    23    1
     7     4     7    1
     8     4    12    1
     9     4    19    1
    10     5     6    1
    11     5     8    1
    12     5     9    1
    13     5    10    1
    14     6     7    1
    15     6    16    2
    16     7    11    1
    17     8    15    1
    18     9    12    1
    19    10    13   ar
    20    10    14   ar
    21    11    13    1
    22    13    18   ar
    23    14    20   ar
    24    15    17    2
    25    16    17    1
    26    18    21   ar
    27    20    21   ar
    28     4    24    1
    29     7    25    1
    30     8    26    1
    31     9    27    1
    32     9    28    1
    33    11    29    1
    34    11    30    1
    35    12    31    1
    36    12    32    1
    37    16    33    1
    38    17    34    1
    39    18    35    1
    40    19    36    1
    41    19    37    1
    42    19    38    1
    43    21    39    1
    44    22    40    1
    45    22    41    1
    46    22    42    1
    47    23    43    1
    48    23    44    1
    49    23    45    1
@<TRIPOS>MOLECULE
70907595
 47 51 0 0 0
SMALL
GASTEIGER

@<TRIPOS>ATOM
      1 O         121.5197  152.3878  144.9707 O.3     1  UNL111     -0.5569
      2 O         117.0667  151.5481  145.9443 O.3     1  UNL111     -0.4362
      3 O         121.5215  151.1569  147.4662 O.3     1  UNL111     -0.4413
      4 O         124.3559  152.9152  146.4167 O.3     1  UNL111     -0.4468
      5 N         116.7730  154.1208  145.9938 N.4     1  UNL111      0.4300
      6 C         119.2368  152.6439  145.6956 C.3     1  UNL111      0.0689
      7 C         118.1445  152.1973  146.6819 C.3     1  UNL111      0.0449
      8 C         117.4980  153.5132  147.2297 C.3     1  UNL111      0.0006
      9 C         120.3254  151.6155  145.3267 C.3     1  UNL111      0.0879
     10 C         118.5897  153.3172  144.4573 C.3     1  UNL111     -0.0200
     11 C         120.1507  153.6510  146.3008 C.ar    1  UNL111      0.0170
     12 C         118.6289  151.2330  147.7683 C.3     1  UNL111     -0.0145
     13 C         120.6908  150.5965  146.4474 C.3     1  UNL111      0.0461
     14 C         118.4708  154.5174  147.9070 C.3     1  UNL111     -0.0153
     15 C         119.4483  150.0767  147.1673 C.3     1  UNL111     -0.0161
     16 C         117.6735  154.4871  144.8387 C.3     1  UNL111     -0.0337
     17 C         119.8341  154.5688  147.2801 C.ar    1  UNL111     -0.0445
     18 C         121.4255  153.4989  145.7844 C.ar    1  UNL111      0.0644
     19 C         122.4647  154.3090  146.1903 C.ar    1  UNL111      0.0054
     20 C         120.8600  155.4149  147.6994 C.ar    1  UNL111     -0.0701
     21 C         115.7717  155.1818  146.3201 C.3     1  UNL111     -0.0427
     22 C         122.1583  155.2897  147.1539 C.ar    1  UNL111     -0.0561
     23 C         123.8670  154.0623  145.7321 C.3     1  UNL111      0.0391
     24 H         117.2072  150.5816  145.9348 H       1  UNL111      0.2435
     25 H         122.3430  151.4835  147.0404 H       1  UNL111      0.2393
     26 H         125.2818  152.8026  146.1403 H       1  UNL111      0.2371
     27 H         116.2357  153.2997  145.6552 H       1  UNL111      0.1349
     28 H         116.6832  153.2634  147.9207 H       1  UNL111      0.0967
     29 H         120.0107  151.0493  144.4410 H       1  UNL111      0.1409
     30 H         118.0102  152.5735  143.8952 H       1  UNL111      0.0561
     31 H         119.3473  153.6878  143.7541 H       1  UNL111      0.0561
     32 H         117.7674  150.8052  148.2959 H       1  UNL111      0.0523
     33 H         119.2313  151.7582  148.5180 H       1  UNL111      0.0523
     34 H         121.2535  149.7640  146.0107 H       1  UNL111      0.1118
     35 H         118.6076  154.1940  148.9470 H       1  UNL111      0.0633
     36 H         118.0402  155.5230  147.9385 H       1  UNL111      0.0633
     37 H         118.8412  149.4792  146.4796 H       1  UNL111      0.0501
     38 H         119.7494  149.4135  147.9878 H       1  UNL111      0.0501
     39 H         118.2352  155.3819  145.1247 H       1  UNL111      0.0743
     40 H         117.0263  154.7449  143.9931 H       1  UNL111      0.0743
     41 H         120.6907  156.1494  148.4850 H       1  UNL111      0.0910
     42 H         116.3001  156.0914  146.6136 H       1  UNL111      0.0670
     43 H         115.1344  154.8176  147.1296 H       1  UNL111      0.0670
     44 H         115.1681  155.3612  145.4264 H       1  UNL111      0.0670
     45 H         122.9497  155.9333  147.5376 H       1  UNL111      0.0949
     46 H         123.8984  153.8814  144.6525 H       1  UNL111      0.1036
     47 H         124.5148  154.9158  145.9573 H       1  UNL111      0.1036
@<TRIPOS>UNITY_ATOM_ATTR
5 1
charge 1
@<TRIPOS>BOND
     1     1     9    1
     2     1    18    1
     3     2     7    1
     4     3    13    1
     5     4    23    1
     6     5     8    1
     7     5    16    1
     8     5    21    1
     9     6     7    1
    10     6     9    1
    11     6    10    1
    12     6    11    1
    13     7     8    1
    14     7    12    1
    15     8    14    1
    16     9    13    1
    17    10    16    1
    18    11    17   ar
    19    11    18   ar
    20    12    15    1
    21    13    15    1
    22    14    17    1
    23    17    20   ar
    24    18    19   ar
    25    19    22   ar
    26    19    23    1
    27    20    22   ar
    28     2    24    1
    29     3    25    1
    30     4    26    1
    31     5    27    1
    32     8    28    1
    33     9    29    1
    34    10    30    1
    35    10    31    1
    36    12    32    1
    37    12    33    1
    38    13    34    1
    39    14    35    1
    40    14    36    1
    41    15    37    1
    42    15    38    1
    43    16    39    1
    44    16    40    1
    45    20    41    1
    46    21    42    1
    47    21    43    1
    48    21    44    1
    49    22    45    1
    50    23    46    1
    51    23    47    1
@<TRIPOS>MOLECULE
150664178
 48 52 0 0 0
SMALL
GASTEIGER

@<TRIPOS>ATOM
      1 O         121.4431  152.4401  144.9289 O.2     1  UNL111     -0.5286
      2 O         116.9462  152.1016  145.7595 O.3     1  UNL111     -0.4353
      3 O         121.2841  149.9752  146.1891 O.2     1  UNL111     -0.4024
      4 O         123.8174  153.7129  145.8126 O.2     1  UNL111     -0.5683
      5 N         116.9773  154.7394  146.0381 N.4     1  UNL111      0.4301
      6 C         119.2126  152.9577  145.6346 C.3     1  UNL111      0.0841
      7 C         118.0497  152.5795  146.5676 C.3     1  UNL111      0.0501
      8 C         117.5605  153.9186  147.2185 C.3     1  UNL111      0.0014
      9 C         120.1326  151.8338  145.1281 C.3     1  UNL111      0.1435
     10 C         118.7158  153.8577  144.4746 C.3     1  UNL111     -0.0174
     11 C         120.2473  153.7112  146.3962 C.3     1  UNL111      0.0337
     12 C         118.4327  151.4939  147.5817 C.3     1  UNL111     -0.0005
     13 C         118.6432  154.6992  148.0178 C.3     1  UNL111     -0.0147
     14 C         118.9947  150.2549  146.8698 C.3     1  UNL111      0.0385
     15 C         117.9744  155.1027  144.9637 C.3     1  UNL111     -0.0334
     16 C         120.0304  154.5705  147.4538 C.3     1  UNL111     -0.0392
     17 C         120.2526  150.6392  146.0966 C.2     1  UNL111      0.1328
     18 C         121.5039  153.4148  145.9011 C.3     1  UNL111      0.1114
     19 C         116.1199  155.8978  146.4481 C.3     1  UNL111     -0.0427
     20 C         119.2784  149.1493  147.8855 C.3     1  UNL111     -0.0437
     21 C         121.1547  155.2040  147.9806 C.3     1  UNL111     -0.0567
     22 C         122.6311  154.0431  146.3917 C.3     1  UNL111      0.0934
     23 C         122.4403  154.9543  147.4419 C.3     1  UNL111     -0.0129
     24 C         124.9973  154.2576  146.3885 C.3     1  UNL111      0.0331
     25 H         116.4886  151.3656  146.2144 H       1  UNL111      0.2436
     26 H         116.3451  154.0563  145.5816 H       1  UNL111      0.1349
     27 H         116.6939  153.7203  147.8613 H       1  UNL111      0.0968
     28 H         119.7853  151.4318  144.1691 H       1  UNL111      0.1629
     29 H         118.0497  153.2773  143.8228 H       1  UNL111      0.0565
     30 H         119.5455  154.1823  143.8328 H       1  UNL111      0.0565
     31 H         117.5442  151.2033  148.1569 H       1  UNL111      0.0567
     32 H         119.1683  151.8704  148.3024 H       1  UNL111      0.0567
     33 H         118.6698  154.2813  149.0325 H       1  UNL111      0.0633
     34 H         118.3792  155.7568  148.1136 H       1  UNL111      0.0633
     35 H         118.2747  149.8678  146.1392 H       1  UNL111      0.0756
     36 H         118.6493  155.8601  145.3744 H       1  UNL111      0.0743
     37 H         117.4127  155.5534  144.1381 H       1  UNL111      0.0743
     38 H         116.7566  156.6844  146.8585 H       1  UNL111      0.0670
     39 H         115.3995  155.5458  147.1906 H       1  UNL111      0.0670
     40 H         115.5916  156.2559  145.5605 H       1  UNL111      0.0670
     41 H         120.0285  149.4643  148.6194 H       1  UNL111      0.0324
     42 H         119.6586  148.2501  147.3885 H       1  UNL111      0.0324
     43 H         118.3670  148.8725  148.4256 H       1  UNL111      0.0324
     44 H         121.0659  155.8899  148.8220 H       1  UNL111      0.0940
     45 H         123.2826  155.4798  147.8853 H       1  UNL111      0.1142
     46 H         125.8544  153.8567  145.8390 H       1  UNL111      0.1074
     47 H         125.1016  153.9569  147.4364 H       1  UNL111      0.1074
     48 H         125.0161  155.3476  146.2872 H       1  UNL111      0.1074
@<TRIPOS>UNITY_ATOM_ATTR
5 1
charge 1
@<TRIPOS>BOND
     1     1     9    1
     2     1    18    1
     3     2     7    1
     4     3    17    2
     5     4    22    1
     6     4    24    1
     7     5     8    1
     8     5    15    1
     9     5    19    1
    10     6     7    1
    11     6     9    1
    12     6    10    1
    13     6    11    1
    14     7     8    1
    15     7    12    1
    16     8    13    1
    17     9    17    1
    18    10    15    1
    19    11    16   ar
    20    11    18   ar
    21    12    14    1
    22    13    16    1
    23    14    17    1
    24    14    20    1
    25    16    21   ar
    26    18    22   ar
    27    21    23   ar
    28    22    23   ar
    29     2    25    1
    30     5    26    1
    31     8    27    1
    32     9    28    1
    33    10    29    1
    34    10    30    1
    35    12    31    1
    36    12    32    1
    37    13    33    1
    38    13    34    1
    39    14    35    1
    40    15    36    1
    41    15    37    1
    42    19    38    1
    43    19    39    1
    44    19    40    1
    45    20    41    1
    46    20    42    1
    47    20    43    1
    48    21    44    1
    49    23    45    1
    50    24    46    1
    51    24    47    1
    52    24    48    1
@<TRIPOS>MOLECULE
5489120
 42 46 0 0 0
SMALL
GASTEIGER

@<TRIPOS>ATOM
      1 O         121.3719  154.0083  147.4075 O.2     1  UNL111     -0.5288
      2 O         116.8412  154.2045  146.7744 O.3     1  UNL111     -0.4355
      3 O         121.1121  156.1771  145.6955 O.2     1  UNL111     -0.4035
      4 O         123.7990  152.3578  146.4682 O.2     1  UNL111     -0.5683
      5 N         116.8876  151.5516  147.0588 N.4     1  UNL111      0.4363
      6 C         119.1091  153.3650  146.9649 C.3     1  UNL111      0.0837
      7 C         117.8957  153.5470  146.0337 C.3     1  UNL111      0.0496
      8 C         117.3752  152.1077  145.7194 C.3     1  UNL111      0.0057
      9 C         120.0467  154.5643  147.1704 C.3     1  UNL111      0.1428
     10 C         118.6757  152.7374  148.3161 C.3     1  UNL111     -0.0173
     11 C         120.1053  152.4588  146.3238 C.3     1  UNL111      0.0336
     12 C         118.2277  154.3805  144.7893 C.3     1  UNL111     -0.0023
     13 C         118.4006  151.1502  145.0576 C.3     1  UNL111     -0.0145
     14 C         117.9106  151.4263  148.1418 C.3     1  UNL111     -0.0289
     15 C         119.8195  151.3871  145.4961 C.3     1  UNL111     -0.0393
     16 C         118.8311  155.7255  145.1843 C.3     1  UNL111      0.0363
     17 C         120.1055  155.5261  145.9716 C.2     1  UNL111      0.1306
     18 C         121.3924  152.8552  146.6565 C.3     1  UNL111      0.1114
     19 C         120.9037  150.6345  145.0545 C.3     1  UNL111     -0.0567
     20 C         122.4797  152.1228  146.2283 C.3     1  UNL111      0.0934
     21 C         122.2148  150.9916  145.4364 C.3     1  UNL111     -0.0129
     22 C         124.1411  153.6411  146.9814 C.3     1  UNL111      0.0331
     23 H         116.3619  154.8340  146.1976 H       1  UNL111      0.2436
     24 H         116.3938  150.6588  146.9300 H       1  UNL111      0.1391
     25 H         116.1817  152.2299  147.3944 H       1  UNL111      0.1391
     26 H         116.4636  152.1529  145.1122 H       1  UNL111      0.0968
     27 H         119.7549  155.1592  148.0438 H       1  UNL111      0.1627
     28 H         118.0440  153.4502  148.8621 H       1  UNL111      0.0564
     29 H         119.5393  152.5489  148.9674 H       1  UNL111      0.0564
     30 H         117.3163  154.5649  144.2077 H       1  UNL111      0.0555
     31 H         118.9251  153.8502  144.1309 H       1  UNL111      0.0555
     32 H         118.3636  151.3151  143.9733 H       1  UNL111      0.0632
     33 H         118.1215  150.1061  145.2415 H       1  UNL111      0.0632
     34 H         118.5637  150.5884  147.8810 H       1  UNL111      0.0742
     35 H         117.3707  151.1633  149.0569 H       1  UNL111      0.0742
     36 H         118.1410  156.3227  145.7888 H       1  UNL111      0.0708
     37 H         119.0641  156.2978  144.2795 H       1  UNL111      0.0708
     38 H         120.7656  149.7769  144.3982 H       1  UNL111      0.0940
     39 H         123.0531  150.3937  145.0786 H       1  UNL111      0.1142
     40 H         125.2323  153.7227  146.9674 H       1  UNL111      0.1074
     41 H         123.8170  153.7445  148.0214 H       1  UNL111      0.1074
     42 H         123.7434  154.4444  146.3522 H       1  UNL111      0.1074
@<TRIPOS>UNITY_ATOM_ATTR
5 1
charge 1
@<TRIPOS>BOND
     1     1     9    1
     2     1    18    1
     3     2     7    1
     4     3    17    2
     5     4    20    1
     6     4    22    1
     7     5     8    1
     8     5    14    1
     9     6     7    1
    10     6     9    1
    11     6    10    1
    12     6    11    1
    13     7     8    1
    14     7    12    1
    15     8    13    1
    16     9    17    1
    17    10    14    1
    18    11    15   ar
    19    11    18   ar
    20    12    16    1
    21    13    15    1
    22    15    19   ar
    23    16    17    1
    24    18    20   ar
    25    19    21   ar
    26    20    21   ar
    27     2    23    1
    28     5    24    1
    29     5    25    1
    30     8    26    1
    31     9    27    1
    32    10    28    1
    33    10    29    1
    34    12    30    1
    35    12    31    1
    36    13    32    1
    37    13    33    1
    38    14    34    1
    39    14    35    1
    40    16    36    1
    41    16    37    1
    42    19    38    1
    43    21    39    1
    44    22    40    1
    45    22    41    1
    46    22    42    1
@<TRIPOS>MOLECULE
9926820
 43 47 0 0 0
SMALL
GASTEIGER

@<TRIPOS>ATOM
      1 O         118.0537  153.7679  145.3955 O.2     1  UNL111     -0.5267
      2 O         122.4571  154.8510  146.1223 O.3     1  UNL111     -0.4286
      3 O         117.9797  156.2520  146.8731 O.2     1  UNL111     -0.3921
      4 O         115.9704  151.6871  146.3070 O.2     1  UNL111     -0.5683
      5 N         122.9622  152.2574  145.8722 N.4     1  UNL111      0.4307
      6 C         120.3901  153.5791  145.8901 C.3     1  UNL111      0.0903
      7 C         121.5139  154.0242  146.8406 C.3     1  UNL111      0.0669
      8 C         122.3041  152.7125  147.2042 C.3     1  UNL111      0.0066
      9 C         120.9754  153.0324  144.5640 C.3     1  UNL111     -0.0159
     10 C         119.2435  154.5686  145.6586 C.3     1  UNL111      0.1509
     11 C         119.5718  152.5025  146.5215 C.3     1  UNL111      0.0355
     12 C         121.4560  151.5943  147.8701 C.3     1  UNL111     -0.0134
     13 C         121.9874  151.9028  144.7764 C.3     1  UNL111     -0.0329
     14 C         120.0369  151.5268  147.3822 C.3     1  UNL111     -0.0387
     15 C         121.0346  154.8338  148.0062 C.2     1  UNL111     -0.0383
     16 C         118.2402  152.6361  146.1556 C.3     1  UNL111      0.1122
     17 C         118.9504  155.4995  146.8464 C.2     1  UNL111      0.1562
     18 C         119.8741  155.5041  148.0128 C.2     1  UNL111      0.0077
     19 C         124.0549  151.2452  146.0330 C.3     1  UNL111     -0.0425
     20 C         119.1094  150.5832  147.8148 C.3     1  UNL111     -0.0566
     21 C         117.3047  151.7137  146.5749 C.3     1  UNL111      0.0935
     22 C         117.7647  150.6683  147.3945 C.3     1  UNL111     -0.0129
     23 C         115.3997  152.8682  145.7541 C.3     1  UNL111      0.0331
     24 H         122.2232  155.7933  146.2488 H       1  UNL111      0.2467
     25 H         123.4235  153.1298  145.5507 H       1  UNL111      0.1354
     26 H         123.1560  152.9623  147.8496 H       1  UNL111      0.0989
     27 H         121.4638  153.8501  144.0180 H       1  UNL111      0.0568
     28 H         120.1840  152.6642  143.8978 H       1  UNL111      0.0568
     29 H         119.4381  155.2075  144.7888 H       1  UNL111      0.1654
     30 H         121.4132  151.8100  148.9457 H       1  UNL111      0.0636
     31 H         121.9329  150.6157  147.7585 H       1  UNL111      0.0636
     32 H         121.5076  150.9574  145.0482 H       1  UNL111      0.0744
     33 H         122.5701  151.7436  143.8624 H       1  UNL111      0.0744
     34 H         121.6810  154.9157  148.8790 H       1  UNL111      0.0995
     35 H         119.5565  156.1080  148.8585 H       1  UNL111      0.1170
     36 H         123.6125  150.2824  146.2975 H       1  UNL111      0.0670
     37 H         124.7350  151.5946  146.8138 H       1  UNL111      0.0670
     38 H         124.5890  151.1736  145.0818 H       1  UNL111      0.0670
     39 H         119.3952  149.7833  148.4957 H       1  UNL111      0.0940
     40 H         117.0506  149.9240  147.7469 H       1  UNL111      0.1142
     41 H         114.3132  152.7364  145.7419 H       1  UNL111      0.1074
     42 H         115.7255  153.0126  144.7195 H       1  UNL111      0.1074
     43 H         115.6169  153.7457  146.3724 H       1  UNL111      0.1074
@<TRIPOS>UNITY_ATOM_ATTR
5 1
charge 1
@<TRIPOS>BOND
     1     1    10    1
     2     1    16    1
     3     2     7    1
     4     3    17    2
     5     4    21    1
     6     4    23    1
     7     5     8    1
     8     5    13    1
     9     5    19    1
    10     6     7    1
    11     6     9    1
    12     6    10    1
    13     6    11    1
    14     7     8    1
    15     7    15    1
    16     8    12    1
    17     9    13    1
    18    10    17    1
    19    11    14   ar
    20    11    16   ar
    21    12    14    1
    22    14    20   ar
    23    15    18    2
    24    16    21   ar
    25    17    18    1
    26    20    22   ar
    27    21    22   ar
    28     2    24    1
    29     5    25    1
    30     8    26    1
    31     9    27    1
    32     9    28    1
    33    10    29    1
    34    12    30    1
    35    12    31    1
    36    13    32    1
    37    13    33    1
    38    15    34    1
    39    18    35    1
    40    19    36    1
    41    19    37    1
    42    19    38    1
    43    20    39    1
    44    22    40    1
    45    23    41    1
    46    23    42    1
    47    23    43    1
@<TRIPOS>MOLECULE
156963567
 48 52 0 0 0
SMALL
GASTEIGER

@<TRIPOS>ATOM
      1 O         121.8143  153.9033  145.1510 O.2     1  UNL111     -0.5295
      2 O         117.4314  155.0710  146.0001 O.3     1  UNL111     -0.4412
      3 O         122.1134  156.1184  146.8332 O.2     1  UNL111     -0.4036
      4 O         123.8064  152.0050  145.8293 O.2     1  UNL111     -0.5683
      5 N         116.0777  151.1401  146.0257 N.4     1  UNL111      0.4318
      6 C         119.4880  153.7826  145.7184 C.3     1  UNL111      0.0775
      7 C         118.3755  154.2313  146.6819 C.3     1  UNL111      0.0472
      8 C         117.5717  152.9378  147.0781 C.3     1  UNL111     -0.0083
      9 C         118.8752  153.2321  144.4035 C.3     1  UNL111     -0.0196
     10 C         120.6597  154.7417  145.4472 C.3     1  UNL111      0.1398
     11 C         116.8899  152.3890  145.7859 C.3     1  UNL111     -0.0244
     12 C         120.2934  152.7005  146.3531 C.3     1  UNL111      0.0281
     13 C         118.9182  155.0114  147.8908 C.3     1  UNL111     -0.0057
     14 C         117.8750  152.0913  144.6464 C.3     1  UNL111     -0.0448
     15 C         118.4613  151.8957  147.8250 C.3     1  UNL111     -0.0157
     16 C         119.8504  151.7675  147.2688 C.3     1  UNL111     -0.0446
     17 C         119.8238  156.1643  147.4675 C.3     1  UNL111      0.0347
     18 C         120.9827  155.6787  146.6265 C.2     1  UNL111      0.1297
     19 C         121.6085  152.7859  145.9321 C.3     1  UNL111      0.1104
     20 C         120.7862  150.8297  147.7032 C.3     1  UNL111     -0.0587
     21 C         122.5492  151.8568  146.3295 C.3     1  UNL111      0.0933
     22 C         122.1172  150.8620  147.2198 C.3     1  UNL111     -0.0132
     23 C         114.9008  151.2894  146.9263 C.3     1  UNL111     -0.0410
     24 C         124.8117  151.1308  146.3239 C.3     1  UNL111      0.0331
     25 H         117.7898  155.9662  145.8569 H       1  UNL111      0.2397
     26 H         116.6728  150.3645  146.3458 H       1  UNL111      0.1347
     27 H         115.7160  150.8269  145.1130 H       1  UNL111      0.1347
     28 H         116.7639  153.2354  147.7603 H       1  UNL111      0.0702
     29 H         119.6530  152.8683  143.7191 H       1  UNL111      0.0460
     30 H         118.3661  154.0452  143.8703 H       1  UNL111      0.0460
     31 H         120.4595  155.3804  144.5787 H       1  UNL111      0.1619
     32 H         116.1599  153.1207  145.4180 H       1  UNL111      0.0822
     33 H         119.4839  154.3587  148.5645 H       1  UNL111      0.0529
     34 H         118.0828  155.4230  148.4703 H       1  UNL111      0.0529
     35 H         118.4255  151.1653  144.8552 H       1  UNL111      0.0480
     36 H         117.3226  151.9032  143.7169 H       1  UNL111      0.0480
     37 H         117.9836  150.9123  147.8548 H       1  UNL111      0.0531
     38 H         118.5578  152.2211  148.8690 H       1  UNL111      0.0531
     39 H         120.2259  156.6480  148.3652 H       1  UNL111      0.0704
     40 H         119.2832  156.9286  146.9010 H       1  UNL111      0.0704
     41 H         120.5175  150.0735  148.4389 H       1  UNL111      0.0936
     42 H         122.8055  150.1056  147.5881 H       1  UNL111      0.1142
     43 H         115.2576  151.4860  147.9389 H       1  UNL111      0.0663
     44 H         114.3496  150.3467  146.8979 H       1  UNL111      0.0663
     45 H         114.2796  152.1062  146.5517 H       1  UNL111      0.0663
     46 H         125.7604  151.4130  145.8572 H       1  UNL111      0.1074
     47 H         124.5997  150.0928  146.0476 H       1  UNL111      0.1074
     48 H         124.9287  151.2346  147.4077 H       1  UNL111      0.1074
@<TRIPOS>UNITY_ATOM_ATTR
5 1
charge 1
@<TRIPOS>BOND
     1     1    10    1
     2     1    19    1
     3     2     7    1
     4     3    18    2
     5     4    21    1
     6     4    24    1
     7     5    11    1
     8     5    23    1
     9     6     7    1
    10     6     9    1
    11     6    10    1
    12     6    12    1
    13     7     8    1
    14     7    13    1
    15     8    11    1
    16     8    15    1
    17     9    14    1
    18    10    18    1
    19    11    14    1
    20    12    16   ar
    21    12    19   ar
    22    13    17    1
    23    15    16    1
    24    16    20   ar
    25    17    18    1
    26    19    21   ar
    27    20    22   ar
    28    21    22   ar
    29     2    25    1
    30     5    26    1
    31     5    27    1
    32     8    28    1
    33     9    29    1
    34     9    30    1
    35    10    31    1
    36    11    32    1
    37    13    33    1
    38    13    34    1
    39    14    35    1
    40    14    36    1
    41    15    37    1
    42    15    38    1
    43    17    39    1
    44    17    40    1
    45    20    41    1
    46    22    42    1
    47    23    43    1
    48    23    44    1
    49    23    45    1
    50    24    46    1
    51    24    47    1
    52    24    48    1
