@<TRIPOS>MOLECULE
5284604
 42 46 0 0 0
SMALL
GASTEIGER

@<TRIPOS>ATOM
      1 O         117.8924  152.5281  147.7303 O.2     1  UNL111     -0.5290
      2 O         122.1929  151.2515  146.7396 O.3     1  UNL111     -0.4354
      3 O         117.5020  150.2937  146.1412 O.2     1  UNL111     -0.4035
      4 O         115.8966  154.5342  146.9971 O.2     1  UNL111     -0.5484
      5 N         122.8201  153.8302  146.8896 N.4     1  UNL111      0.4301
      6 C         120.2106  152.6063  147.0747 C.3     1  UNL111      0.0838
      7 C         121.2531  152.1141  146.0541 C.3     1  UNL111      0.0494
      8 C         122.0632  153.3816  145.6117 C.3     1  UNL111      0.0013
      9 C         119.0379  151.6701  147.4266 C.3     1  UNL111      0.1427
     10 C         120.9027  153.1602  148.3456 C.3     1  UNL111     -0.0175
     11 C         119.3993  153.6984  146.4721 C.3     1  UNL111      0.0335
     12 C         120.6197  151.3361  144.8936 C.3     1  UNL111     -0.0022
     13 C         121.2132  154.5250  144.9851 C.3     1  UNL111     -0.0147
     14 C         121.9331  154.2483  148.0378 C.3     1  UNL111     -0.0334
     15 C         119.8292  154.6447  145.5607 C.3     1  UNL111     -0.0392
     16 C         119.7681  150.1833  145.4181 C.3     1  UNL111      0.0363
     17 C         118.6522  150.7026  146.2949 C.2     1  UNL111      0.1306
     18 C         118.1016  153.6260  146.9331 C.3     1  UNL111      0.1104
     19 C         123.9395  154.7962  146.6426 C.3     1  UNL111     -0.0427
     20 C         118.8970  155.6076  145.1672 C.3     1  UNL111     -0.0569
     21 C         117.1804  154.5722  146.5597 C.3     1  UNL111      0.0925
     22 C         117.5815  155.5791  145.6808 C.3     1  UNL111     -0.0139
     23 H         122.4880  150.5336  146.1428 H       1  UNL111      0.2436
     24 H         115.7893  153.7071  147.5052 H       1  UNL111      0.3393
     25 H         123.2623  152.9497  147.2114 H       1  UNL111      0.1349
     26 H         122.8595  153.0856  144.9178 H       1  UNL111      0.0968
     27 H         119.2602  151.0596  148.3096 H       1  UNL111      0.1627
     28 H         121.3994  152.3378  148.8770 H       1  UNL111      0.0565
     29 H         120.1714  153.5701  149.0548 H       1  UNL111      0.0565
     30 H         121.4036  150.9237  144.2469 H       1  UNL111      0.0555
     31 H         120.0004  151.9893  144.2685 H       1  UNL111      0.0555
     32 H         121.0971  154.3011  143.9167 H       1  UNL111      0.0633
     33 H         121.7284  155.4877  145.0568 H       1  UNL111      0.0633
     34 H         121.4693  155.2036  147.7734 H       1  UNL111      0.0743
     35 H         122.5804  154.4085  148.9071 H       1  UNL111      0.0743
     36 H         120.3595  149.4674  145.9978 H       1  UNL111      0.0708
     37 H         119.3271  149.6449  144.5719 H       1  UNL111      0.0708
     38 H         123.5191  155.7705  146.3850 H       1  UNL111      0.0670
     39 H         124.5569  154.4053  145.8301 H       1  UNL111      0.0670
     40 H         124.5327  154.8643  147.5584 H       1  UNL111      0.0670
     41 H         119.1590  156.3805  144.4463 H       1  UNL111      0.0939
     42 H         116.8589  156.3292  145.3644 H       1  UNL111      0.1139
@<TRIPOS>UNITY_ATOM_ATTR
5 1
charge 1
@<TRIPOS>BOND
     1     1     9    1
     2     1    18    1
     3     2     7    1
     4     3    17    2
     5     4    21    1
     6     5     8    1
     7     5    14    1
     8     5    19    1
     9     6     7    1
    10     6     9    1
    11     6    10    1
    12     6    11    1
    13     7     8    1
    14     7    12    1
    15     8    13    1
    16     9    17    1
    17    10    14    1
    18    11    15   ar
    19    11    18   ar
    20    12    16    1
    21    13    15    1
    22    15    20   ar
    23    16    17    1
    24    18    21   ar
    25    20    22   ar
    26    21    22   ar
    27     2    23    1
    28     4    24    1
    29     5    25    1
    30     8    26    1
    31     9    27    1
    32    10    28    1
    33    10    29    1
    34    12    30    1
    35    12    31    1
    36    13    32    1
    37    13    33    1
    38    14    34    1
    39    14    35    1
    40    16    36    1
    41    16    37    1
    42    19    38    1
    43    19    39    1
    44    19    40    1
    45    20    41    1
    46    22    42    1
@<TRIPOS>MOLECULE
45040176
 26 30 0 0 0
SMALL
GASTEIGER

@<TRIPOS>ATOM
      1 O         117.6989  152.4806  147.4563 O.2     1  UNL111     -0.5242
      2 O         122.2025  151.2241  146.5232 O.3     1  UNL111     -0.2996
      3 O         117.8972  149.5396  146.6262 O.2     1  UNL111     -0.3918
      4 O         115.8500  154.7229  146.7731 O.co2   1  UNL111     -0.7918
      5 N         123.0136  153.7127  146.8395 N.4     1  UNL111      0.4463
      6 C         120.0769  152.5332  147.0396 C.3     1  UNL111      0.1438
      7 C         121.3156  152.0668  145.9849 C.3     1  UNL111      0.1447
      8 C         122.1019  153.4083  145.6925 C.3     1  UNL111      0.0784
      9 C         118.8511  151.6514  147.3285 C.3     1  UNL111      0.2157
     10 C         120.7852  153.0766  148.2390 C.3     1  UNL111      0.0866
     11 C         119.3157  153.7164  146.4467 C.2     1  UNL111      0.0368
     12 C         120.6663  151.3548  144.8940 C.3     1  UNL111      0.1061
     13 C         121.2017  154.4641  145.3113 C.3     1  UNL111      0.0751
     14 C         122.1531  153.7193  148.0460 C.3     1  UNL111      0.0496
     15 C         119.8426  154.7072  145.6319 C.2     1  UNL111      0.0007
     16 C         119.4200  150.5330  145.1706 C.3     1  UNL111      0.1440
     17 C         118.6433  150.4797  146.3900 C.2     1  UNL111      0.1782
     18 C         117.9759  153.6763  146.8044 C.2     1  UNL111      0.0547
     19 C         123.9058  154.8442  146.6150 C.3     1  UNL111     -0.0303
     20 C         119.0210  155.7268  145.2166 C.2     1  UNL111     -0.0112
     21 C         117.0808  154.6851  146.4479 C.2     1  UNL111     -0.0507
     22 C         117.6781  155.7011  145.6503 C.2     1  UNL111     -0.0253
     23 H         123.5046  152.7934  146.9258 H       1  UNL111      0.1553
     24 H         123.3286  155.7723  146.5576 H       1  UNL111      0.0696
     25 H         124.4653  154.6777  145.6895 H       1  UNL111      0.0696
     26 H         124.6058  154.8966  147.4543 H       1  UNL111      0.0696
@<TRIPOS>UNITY_ATOM_ATTR
4 1
charge -1
5 1
charge 1
@<TRIPOS>BOND
     1     1     9    1
     2     1    18    1
     3     2     7    1
     4     3    17    2
     5     4    21    1
     6     5     8    1
     7     5    14    1
     8     5    19    1
     9     6     7    1
    10     6     9    1
    11     6    10    1
    12     6    11    1
    13     7     8    1
    14     7    12    1
    15     8    13    1
    16     9    17    1
    17    10    14    1
    18    11    15    2
    19    11    18    1
    20    12    16    1
    21    13    15    1
    22    15    20    1
    23    16    17    1
    24    18    21    2
    25    20    22    2
    26    21    22    1
    27     5    23    1
    28    19    24    1
    29    19    25    1
    30    19    26    1
@<TRIPOS>MOLECULE
129868
 49 54 0 0 0
SMALL
GASTEIGER

@<TRIPOS>ATOM
      1 O         120.9284  152.3479  147.8815 O.2     1  UNL111     -0.5396
      2 O         118.1578  155.8004  146.4886 O.3     1  UNL111     -0.4361
      3 O         122.6980  155.7803  147.6902 O.2     1  UNL111     -0.3651
      4 O         121.3475  149.4805  147.4637 O.2     1  UNL111     -0.5485
      5 O         124.2984  152.2956  145.2732 O.2     1  UNL111     -0.3373
      6 N         116.2129  154.0647  146.6546 N.4     1  UNL111      0.4300
      7 N         122.1699  153.1130  145.5479 N.am    1  UNL111     -0.2559
      8 N         123.8451  154.1237  146.5839 N.am    1  UNL111     -0.2056
      9 C         119.0440  153.5878  147.0147 C.3     1  UNL111      0.0751
     10 C         118.5187  154.5188  145.9124 C.3     1  UNL111      0.0459
     11 C         120.5351  153.6928  147.4141 C.3     1  UNL111      0.1141
     12 C         117.1556  153.9081  145.4326 C.3     1  UNL111      0.0007
     13 C         121.5010  154.1707  146.2832 C.3     1  UNL111      0.1491
     14 C         118.0989  153.6300  148.2458 C.3     1  UNL111     -0.0193
     15 C         119.5225  154.7462  144.7790 C.3     1  UNL111     -0.0110
     16 C         119.0883  152.1808  146.5331 C.3     1  UNL111      0.0308
     17 C         120.8865  155.1910  145.3161 C.3     1  UNL111      0.0071
     18 C         117.2246  152.4460  144.9101 C.3     1  UNL111     -0.0148
     19 C         116.6408  153.3154  147.8922 C.3     1  UNL111     -0.0337
     20 C         118.2360  151.5905  145.6198 C.3     1  UNL111     -0.0396
     21 C         120.1355  151.5112  147.1322 C.3     1  UNL111      0.1069
     22 C         122.7321  154.8061  146.9527 C.2     1  UNL111      0.2084
     23 C         114.7574  153.8992  146.3436 C.3     1  UNL111     -0.0427
     24 C         118.4324  150.2321  145.3612 C.3     1  UNL111     -0.0569
     25 C         120.3292  150.1731  146.8956 C.3     1  UNL111      0.0919
     26 C         123.5287  153.1018  145.7583 C.2     1  UNL111      0.2422
     27 C         119.4662  149.5241  146.0120 C.3     1  UNL111     -0.0140
     28 H         118.9495  156.3566  146.6238 H       1  UNL111      0.2435
     29 H         121.8749  150.1085  147.9920 H       1  UNL111      0.3393
     30 H         116.3453  155.0671  146.8903 H       1  UNL111      0.1349
     31 H         121.7484  152.3835  144.9837 H       1  UNL111      0.2094
     32 H         124.7836  154.3297  146.8849 H       1  UNL111      0.2373
     33 H         120.6211  154.3636  148.2785 H       1  UNL111      0.1461
     34 H         116.7114  154.5552  144.6660 H       1  UNL111      0.0967
     35 H         118.1475  154.6251  148.7071 H       1  UNL111      0.0561
     36 H         118.4219  152.9292  149.0269 H       1  UNL111      0.0561
     37 H         119.1474  155.5272  144.1062 H       1  UNL111      0.0527
     38 H         119.6531  153.8409  144.1757 H       1  UNL111      0.0527
     39 H         121.5589  155.3608  144.4641 H       1  UNL111      0.0547
     40 H         120.7918  156.1669  145.8065 H       1  UNL111      0.0547
     41 H         117.5220  152.4849  143.8542 H       1  UNL111      0.0633
     42 H         116.2418  151.9662  144.9486 H       1  UNL111      0.0633
     43 H         116.4762  152.2486  147.7107 H       1  UNL111      0.0743
     44 H         115.9812  153.6314  148.7078 H       1  UNL111      0.0743
     45 H         114.5513  152.8428  146.1588 H       1  UNL111      0.0670
     46 H         114.5216  154.5065  145.4664 H       1  UNL111      0.0670
     47 H         114.1869  154.2561  147.2052 H       1  UNL111      0.0670
     48 H         117.8047  149.7009  144.6472 H       1  UNL111      0.0939
     49 H         119.6144  148.4661  145.8021 H       1  UNL111      0.1139
@<TRIPOS>UNITY_ATOM_ATTR
6 1
charge 1
@<TRIPOS>BOND
     1     1    11    1
     2     1    21    1
     3     2    10    1
     4     3    22    2
     5     4    25    1
     6     5    26    2
     7     6    12    1
     8     6    19    1
     9     6    23    1
    10     7    13    1
    11     7    26   am
    12     8    22   am
    13     8    26   am
    14     9    10    1
    15     9    11    1
    16     9    14    1
    17     9    16    1
    18    10    12    1
    19    10    15    1
    20    11    13    1
    21    12    18    1
    22    13    17    1
    23    13    22    1
    24    14    19    1
    25    15    17    1
    26    16    20   ar
    27    16    21   ar
    28    18    20    1
    29    20    24   ar
    30    21    25   ar
    31    24    27   ar
    32    25    27   ar
    33     2    28    1
    34     4    29    1
    35     6    30    1
    36     7    31    1
    37     8    32    1
    38    11    33    1
    39    12    34    1
    40    14    35    1
    41    14    36    1
    42    15    37    1
    43    15    38    1
    44    17    39    1
    45    17    40    1
    46    18    41    1
    47    18    42    1
    48    19    43    1
    49    19    44    1
    50    23    45    1
    51    23    46    1
    52    23    47    1
    53    24    48    1
    54    27    49    1
@<TRIPOS>MOLECULE
163285541
 43 47 0 0 0
SMALL
GASTEIGER

@<TRIPOS>ATOM
      1 O         121.9863  153.6972  147.6324 O.2     1  UNL111     -0.5287
      2 O         117.7167  155.1768  146.8636 O.3     1  UNL111     -0.4337
      3 O         118.3262  151.8518  143.8881 O.3     1  UNL111     -0.4346
      4 O         122.3836  155.7682  145.8386 O.2     1  UNL111     -0.4035
      5 O         123.7992  151.5128  146.9451 O.2     1  UNL111     -0.5484
      6 N         116.9304  152.6775  147.2771 N.4     1  UNL111      0.4331
      7 C         119.6260  153.7159  147.1520 C.3     1  UNL111      0.0870
      8 C         118.5378  154.1979  146.1774 C.3     1  UNL111      0.0571
      9 C         117.6152  152.9587  145.9101 C.3     1  UNL111      0.0277
     10 C         120.8737  154.6013  147.3423 C.3     1  UNL111      0.1431
     11 C         119.0052  153.3094  148.5145 C.3     1  UNL111     -0.0168
     12 C         120.3240  152.5316  146.5797 C.3     1  UNL111      0.0435
     13 C         119.1236  154.8478  144.9166 C.3     1  UNL111     -0.0007
     14 C         118.3518  151.7059  145.3074 C.3     1  UNL111      0.0521
     15 C         117.8772  152.2838  148.3819 C.3     1  UNL111     -0.0316
     16 C         119.7734  151.5448  145.7807 C.3     1  UNL111     -0.0069
     17 C         120.0761  155.9817  145.2857 C.3     1  UNL111      0.0365
     18 C         121.2259  155.4546  146.1122 C.2     1  UNL111      0.1306
     19 C         121.6541  152.5563  146.9450 C.3     1  UNL111      0.1123
     20 C         115.7271  151.7886  147.1860 C.3     1  UNL111     -0.0410
     21 C         120.6152  150.4833  145.4293 C.3     1  UNL111     -0.0469
     22 C         122.4879  151.5231  146.5982 C.3     1  UNL111      0.0929
     23 C         121.9639  150.4700  145.8484 C.3     1  UNL111     -0.0121
     24 H         117.3783  155.8337  146.2204 H       1  UNL111      0.2439
     25 H         119.0767  151.3655  143.4969 H       1  UNL111      0.2440
     26 H         123.9952  152.3734  147.3637 H       1  UNL111      0.3393
     27 H         116.5798  153.6143  147.5495 H       1  UNL111      0.1375
     28 H         116.7931  153.2687  145.2519 H       1  UNL111      0.1102
     29 H         120.7550  155.2898  148.1872 H       1  UNL111      0.1627
     30 H         118.6140  154.2046  149.0157 H       1  UNL111      0.0566
     31 H         119.7638  152.8993  149.1942 H       1  UNL111      0.0566
     32 H         118.3171  155.2573  144.2965 H       1  UNL111      0.0557
     33 H         119.6606  154.1165  144.3029 H       1  UNL111      0.0557
     34 H         117.7955  150.7928  145.5399 H       1  UNL111      0.1244
     35 H         118.2502  151.2788  148.1612 H       1  UNL111      0.0746
     36 H         117.2960  152.2410  149.3095 H       1  UNL111      0.0746
     37 H         119.5741  156.7725  145.8524 H       1  UNL111      0.0708
     38 H         120.4787  156.4298  144.3706 H       1  UNL111      0.0708
     39 H         116.0534  150.7691  146.9701 H       1  UNL111      0.0672
     40 H         115.0770  152.1708  146.3951 H       1  UNL111      0.0672
     41 H         115.2060  151.8299  148.1461 H       1  UNL111      0.0672
     42 H         120.2547  149.6574  144.8175 H       1  UNL111      0.0962
     43 H         122.6147  149.6453  145.5620 H       1  UNL111      0.1142
@<TRIPOS>UNITY_ATOM_ATTR
6 1
charge 1
@<TRIPOS>BOND
     1     1    10    1
     2     1    19    1
     3     2     8    1
     4     3    14    1
     5     4    18    2
     6     5    22    1
     7     6     9    1
     8     6    15    1
     9     6    20    1
    10     7     8    1
    11     7    10    1
    12     7    11    1
    13     7    12    1
    14     8     9    1
    15     8    13    1
    16     9    14    1
    17    10    18    1
    18    11    15    1
    19    12    16   ar
    20    12    19   ar
    21    13    17    1
    22    14    16    1
    23    16    21   ar
    24    17    18    1
    25    19    22   ar
    26    21    23   ar
    27    22    23   ar
    28     2    24    1
    29     3    25    1
    30     5    26    1
    31     6    27    1
    32     9    28    1
    33    10    29    1
    34    11    30    1
    35    11    31    1
    36    13    32    1
    37    13    33    1
    38    14    34    1
    39    15    35    1
    40    15    36    1
    41    17    37    1
    42    17    38    1
    43    20    39    1
    44    20    40    1
    45    20    41    1
    46    21    42    1
    47    23    43    1
@<TRIPOS>MOLECULE
6712731
 44 48 0 0 0
SMALL
GASTEIGER

@<TRIPOS>ATOM
      1 O         121.8717  153.6900  147.6109 O.3     1  UNL111     -0.5438
      2 O         117.4851  154.8815  146.7049 O.3     1  UNL111     -0.4361
      3 O         121.8445  156.5577  146.5426 O.3     1  UNL111     -0.4412
      4 O         123.8274  151.6069  146.9730 O.3     1  UNL111     -0.5485
      5 N         116.9250  152.3414  146.9394 N.4     1  UNL111      0.4300
      6 C         119.5312  153.5869  147.0115 C.3     1  UNL111      0.0716
      7 C         118.4499  154.0412  146.0189 C.3     1  UNL111      0.0452
      8 C         117.6466  152.7535  145.6288 C.3     1  UNL111      0.0007
      9 C         120.7122  154.5419  147.2736 C.3     1  UNL111      0.0914
     10 C         118.8801  153.0770  148.3227 C.3     1  UNL111     -0.0197
     11 C         120.3308  152.4714  146.4368 C.ar    1  UNL111      0.0304
     12 C         119.0052  154.8078  144.8144 C.3     1  UNL111     -0.0145
     13 C         121.1218  155.4230  146.0663 C.3     1  UNL111      0.0465
     14 C         118.4878  151.5971  145.0175 C.3     1  UNL111     -0.0148
     15 C         119.9382  155.9372  145.2524 C.3     1  UNL111     -0.0161
     16 C         117.8392  151.9780  148.0829 C.3     1  UNL111     -0.0337
     17 C         119.8813  151.4923  145.5719 C.ar    1  UNL111     -0.0397
     18 C         121.6352  152.5479  146.8817 C.ar    1  UNL111      0.1064
     19 C         115.8019  151.3700  146.7528 C.3     1  UNL111     -0.0427
     20 C         120.8002  150.5063  145.2054 C.ar    1  UNL111     -0.0569
     21 C         122.5413  151.5743  146.5421 C.ar    1  UNL111      0.0919
     22 C         122.1210  150.5401  145.7048 C.ar    1  UNL111     -0.0140
     23 H         117.8264  155.7953  146.7703 H       1  UNL111      0.2435
     24 H         122.6856  156.2346  146.9176 H       1  UNL111      0.2393
     25 H         123.9238  152.3914  147.5442 H       1  UNL111      0.3393
     26 H         116.4880  153.2399  147.2224 H       1  UNL111      0.1349
     27 H         116.8307  153.0202  144.9454 H       1  UNL111      0.0967
     28 H         120.5190  155.1778  148.1465 H       1  UNL111      0.1414
     29 H         118.3993  153.9172  148.8406 H       1  UNL111      0.0561
     30 H         119.6322  152.6919  149.0239 H       1  UNL111      0.0561
     31 H         118.1793  155.2440  144.2394 H       1  UNL111      0.0523
     32 H         119.5506  154.1405  144.1374 H       1  UNL111      0.0523
     33 H         121.8002  154.8811  145.3960 H       1  UNL111      0.1119
     34 H         118.5851  151.7919  143.9417 H       1  UNL111      0.0633
     35 H         117.9745  150.6365  145.1240 H       1  UNL111      0.0633
     36 H         119.3952  156.7009  145.8215 H       1  UNL111      0.0501
     37 H         120.3143  156.4625  144.3651 H       1  UNL111      0.0501
     38 H         118.2983  151.0121  147.8496 H       1  UNL111      0.0743
     39 H         117.2128  151.8549  148.9733 H       1  UNL111      0.0743
     40 H         116.2169  150.3870  146.5200 H       1  UNL111      0.0670
     41 H         115.1651  151.7313  145.9416 H       1  UNL111      0.0670
     42 H         115.2302  151.3340  147.6839 H       1  UNL111      0.0670
     43 H         120.5206  149.7075  144.5200 H       1  UNL111      0.0939
     44 H         122.8303  149.7677  145.4128 H       1  UNL111      0.1139
@<TRIPOS>UNITY_ATOM_ATTR
5 1
charge 1
@<TRIPOS>BOND
     1     1     9    1
     2     1    18    1
     3     2     7    1
     4     3    13    1
     5     4    21    1
     6     5     8    1
     7     5    16    1
     8     5    19    1
     9     6     7    1
    10     6     9    1
    11     6    10    1
    12     6    11    1
    13     7     8    1
    14     7    12    1
    15     8    14    1
    16     9    13    1
    17    10    16    1
    18    11    17   ar
    19    11    18   ar
    20    12    15    1
    21    13    15    1
    22    14    17    1
    23    17    20   ar
    24    18    21   ar
    25    20    22   ar
    26    21    22   ar
    27     2    23    1
    28     3    24    1
    29     4    25    1
    30     5    26    1
    31     8    27    1
    32     9    28    1
    33    10    29    1
    34    10    30    1
    35    12    31    1
    36    12    32    1
    37    13    33    1
    38    14    34    1
    39    14    35    1
    40    15    36    1
    41    15    37    1
    42    16    38    1
    43    16    39    1
    44    19    40    1
    45    19    41    1
    46    19    42    1
    47    20    43    1
    48    22    44    1
@<TRIPOS>MOLECULE
631218
 52 56 0 0 0
SMALL
GASTEIGER

@<TRIPOS>ATOM
      1 O         118.3048  154.5808  146.5210 O.2     1  UNL111     -0.5269
      2 O         121.8583  153.4272  147.8539 O.3     1  UNL111     -0.5043
      3 O         120.0120  156.8177  145.2385 O.2     1  UNL111     -0.4033
      4 O         115.9051  153.0709  147.4750 O.3     1  UNL111     -0.4569
      5 O         123.9737  152.5895  147.9439 O.2     1  UNL111     -0.3411
      6 O         115.6560  152.9082  145.1533 O.2     1  UNL111     -0.3381
      7 N         121.9180  151.6739  144.4105 N.4     1  UNL111      0.4316
      8 C         120.3419  153.5333  145.9622 C.3     1  UNL111      0.0978
      9 C         121.7890  153.2781  146.4009 C.3     1  UNL111      0.0984
     10 C         122.0625  151.7880  145.9485 C.3     1  UNL111      0.0161
     11 C         119.7256  154.7976  146.5660 C.3     1  UNL111      0.1464
     12 C         120.1339  153.4045  144.4212 C.3     1  UNL111     -0.0139
     13 C         119.4173  152.5856  146.6090 C.3     1  UNL111      0.0388
     14 C         122.6323  154.4288  145.7861 C.3     1  UNL111      0.0122
     15 C         121.1057  150.7718  146.7054 C.3     1  UNL111     -0.0111
     16 C         120.5565  152.0462  143.8742 C.3     1  UNL111     -0.0320
     17 C         119.6922  151.2675  146.9100 C.3     1  UNL111     -0.0376
     18 C         122.0430  155.8287  146.1170 C.3     1  UNL111      0.0399
     19 C         120.5231  155.9215  145.8990 C.2     1  UNL111      0.1320
     20 C         118.2180  153.2340  146.8367 C.3     1  UNL111      0.1198
     21 C         122.3803  150.3447  143.8600 C.3     1  UNL111     -0.0420
     22 C         118.6326  150.5389  147.4459 C.3     1  UNL111     -0.0555
     23 C         117.1541  152.5007  147.2952 C.3     1  UNL111      0.1326
     24 C         117.3639  151.1498  147.6238 C.3     1  UNL111     -0.0053
     25 C         123.0022  153.0742  148.5021 C.2     1  UNL111      0.2152
     26 C         122.9020  153.3791  149.9634 C.3     1  UNL111      0.0551
     27 C         115.2664  153.2765  146.2558 C.2     1  UNL111      0.2266
     28 C         113.9653  153.9814  146.5008 C.3     1  UNL111      0.0573
     29 H         122.5885  152.3410  144.0056 H       1  UNL111      0.1361
     30 H         123.0979  151.4950  146.1376 H       1  UNL111      0.1029
     31 H         119.9541  154.9239  147.6376 H       1  UNL111      0.1636
     32 H         120.6914  154.1824  143.8872 H       1  UNL111      0.0574
     33 H         119.0838  153.5691  144.1439 H       1  UNL111      0.0574
     34 H         122.7061  154.3337  144.6986 H       1  UNL111      0.0614
     35 H         123.6618  154.3992  146.1591 H       1  UNL111      0.0614
     36 H         121.5304  150.6005  147.7028 H       1  UNL111      0.0642
     37 H         121.0830  149.8020  146.2009 H       1  UNL111      0.0642
     38 H         119.8558  151.2487  144.1402 H       1  UNL111      0.0745
     39 H         120.6375  152.0832  142.7823 H       1  UNL111      0.0745
     40 H         122.5340  156.5856  145.4958 H       1  UNL111      0.0716
     41 H         122.2397  156.0834  147.1646 H       1  UNL111      0.0716
     42 H         121.6495  149.5746  144.1145 H       1  UNL111      0.0671
     43 H         123.3612  150.1206  144.2862 H       1  UNL111      0.0671
     44 H         122.4622  150.4472  142.7744 H       1  UNL111      0.0671
     45 H         118.7580  149.4958  147.7313 H       1  UNL111      0.0941
     46 H         116.5394  150.5618  148.0233 H       1  UNL111      0.1154
     47 H         121.9477  153.0177  150.3558 H       1  UNL111      0.0793
     48 H         122.9970  154.4558  150.1214 H       1  UNL111      0.0793
     49 H         123.7049  152.8620  150.4962 H       1  UNL111      0.0793
     50 H         114.1256  154.8475  147.1485 H       1  UNL111      0.0797
     51 H         113.2516  153.2900  146.9547 H       1  UNL111      0.0797
     52 H         113.5645  154.3407  145.5488 H       1  UNL111      0.0797
@<TRIPOS>UNITY_ATOM_ATTR
7 1
charge 1
@<TRIPOS>BOND
     1     1    11    1
     2     1    20    1
     3     2     9    1
     4     2    25    1
     5     3    19    2
     6     4    23    1
     7     4    27    1
     8     5    25    2
     9     6    27    2
    10     7    10    1
    11     7    16    1
    12     7    21    1
    13     8     9    1
    14     8    11    1
    15     8    12    1
    16     8    13    1
    17     9    10    1
    18     9    14    1
    19    10    15    1
    20    11    19    1
    21    12    16    1
    22    13    17   ar
    23    13    20   ar
    24    14    18    1
    25    15    17    1
    26    17    22   ar
    27    18    19    1
    28    20    23   ar
    29    22    24   ar
    30    23    24   ar
    31    25    26    1
    32    27    28    1
    33     7    29    1
    34    10    30    1
    35    11    31    1
    36    12    32    1
    37    12    33    1
    38    14    34    1
    39    14    35    1
    40    15    36    1
    41    15    37    1
    42    16    38    1
    43    16    39    1
    44    18    40    1
    45    18    41    1
    46    21    42    1
    47    21    43    1
    48    21    44    1
    49    22    45    1
    50    24    46    1
    51    26    47    1
    52    26    48    1
    53    26    49    1
    54    28    50    1
    55    28    51    1
    56    28    52    1
@<TRIPOS>MOLECULE
6442029
 57 61 0 0 0
SMALL
GASTEIGER

@<TRIPOS>ATOM
      1 O         119.8508  153.8642  145.3239 O.2     1  UNL111     -0.5465
      2 O         117.2614  150.2088  146.3798 O.3     1  UNL111     -0.4362
      3 O         120.0552  156.7218  145.8559 O.2     1  UNL111     -0.5485
      4 O         122.3387  154.1521  146.7518 O.2     1  UNL111     -0.3727
      5 O         127.1899  153.7226  146.0685 O.3     1  UNL111     -0.5242
      6 O         126.5781  151.5041  146.1811 O.2     1  UNL111     -0.3267
      7 N         115.0921  151.9446  145.6481 N.4     1  UNL111      0.4300
      8 N         121.6404  151.9694  146.9852 N.am    1  UNL111     -0.3060
      9 C         117.9613  152.4926  145.8751 C.3     1  UNL111      0.0695
     10 C         117.3027  151.5549  146.8908 C.3     1  UNL111      0.0444
     11 C         119.5055  152.5209  145.8107 C.3     1  UNL111      0.0857
     12 C         115.8161  152.0536  147.0321 C.3     1  UNL111      0.0006
     13 C         117.3089  152.3133  144.4831 C.3     1  UNL111     -0.0201
     14 C         117.7841  153.9135  146.2918 C.3     1  UNL111      0.0299
     15 C         118.0568  151.4989  148.2308 C.3     1  UNL111     -0.0166
     16 C         120.2278  152.2952  147.1795 C.3     1  UNL111      0.0412
     17 C         115.6816  153.5200  147.5554 C.3     1  UNL111     -0.0148
     18 C         119.5523  151.2199  148.0353 C.3     1  UNL111     -0.0219
     19 C         115.8079  152.6087  144.4926 C.3     1  UNL111     -0.0338
     20 C         116.7348  154.4481  147.0160 C.3     1  UNL111     -0.0397
     21 C         118.8821  154.6507  145.8992 C.3     1  UNL111      0.1058
     22 C         114.6467  150.5417  145.3046 C.3     1  UNL111     -0.0428
     23 C         116.7864  155.8196  147.2785 C.3     1  UNL111     -0.0569
     24 C         118.9536  155.9934  146.1678 C.3     1  UNL111      0.0918
     25 C         117.8874  156.5910  146.8404 C.3     1  UNL111     -0.0140
     26 C         122.5824  152.9534  146.7785 C.2     1  UNL111      0.1750
     27 C         123.9442  152.4113  146.5864 C.2     1  UNL111      0.0465
     28 C         124.9696  153.2534  146.3997 C.2     1  UNL111      0.0696
     29 C         126.3189  152.6961  146.2074 C.2     1  UNL111      0.2484
     30 C         128.5445  153.3100  145.8790 C.3     1  UNL111      0.0471
     31 H         118.1582  149.8316  146.3264 H       1  UNL111      0.2435
     32 H         120.7706  156.0810  145.6608 H       1  UNL111      0.3393
     33 H         114.2091  152.4591  145.7589 H       1  UNL111      0.1349
     34 H         121.9350  151.0007  146.9819 H       1  UNL111      0.1919
     35 H         119.8734  151.7940  145.0755 H       1  UNL111      0.1377
     36 H         115.2468  151.3915  147.6951 H       1  UNL111      0.0967
     37 H         117.4808  151.2920  144.1213 H       1  UNL111      0.0561
     38 H         117.7775  152.9692  143.7372 H       1  UNL111      0.0561
     39 H         117.6370  150.7007  148.8556 H       1  UNL111      0.0518
     40 H         117.9478  152.4324  148.7934 H       1  UNL111      0.0518
     41 H         120.2128  153.2292  147.7568 H       1  UNL111      0.0961
     42 H         115.7848  153.5021  148.6476 H       1  UNL111      0.0633
     43 H         114.6851  153.9177  147.3306 H       1  UNL111      0.0633
     44 H         119.7082  150.2288  147.5938 H       1  UNL111      0.0465
     45 H         120.0366  151.1836  149.0197 H       1  UNL111      0.0465
     46 H         115.6096  153.6821  144.5790 H       1  UNL111      0.0743
     47 H         115.3328  152.2724  143.5642 H       1  UNL111      0.0743
     48 H         115.4763  149.9816  144.8714 H       1  UNL111      0.0670
     49 H         113.8427  150.6306  144.5679 H       1  UNL111      0.0670
     50 H         114.2606  150.0637  146.2078 H       1  UNL111      0.0670
     51 H         116.0010  156.3106  147.8509 H       1  UNL111      0.0939
     52 H         117.9322  157.6536  147.0717 H       1  UNL111      0.1139
     53 H         124.0902  151.3380  146.6007 H       1  UNL111      0.1308
     54 H         124.8559  154.3311  146.3843 H       1  UNL111      0.1417
     55 H         129.1631  154.2073  145.7902 H       1  UNL111      0.1105
     56 H         128.6416  152.7286  144.9567 H       1  UNL111      0.1105
     57 H         128.8937  152.7319  146.7404 H       1  UNL111      0.1105
@<TRIPOS>UNITY_ATOM_ATTR
7 1
charge 1
@<TRIPOS>BOND
     1     1    11    1
     2     1    21    1
     3     2    10    1
     4     3    24    1
     5     4    26    2
     6     5    29    1
     7     5    30    1
     8     6    29    2
     9     7    12    1
    10     7    19    1
    11     7    22    1
    12     8    16    1
    13     8    26   am
    14     9    10    1
    15     9    11    1
    16     9    13    1
    17     9    14    1
    18    10    12    1
    19    10    15    1
    20    11    16    1
    21    12    17    1
    22    13    19    1
    23    14    20   ar
    24    14    21   ar
    25    15    18    1
    26    16    18    1
    27    17    20    1
    28    20    23   ar
    29    21    24   ar
    30    23    25   ar
    31    24    25   ar
    32    26    27    1
    33    27    28    2
    34    28    29    1
    35     2    31    1
    36     3    32    1
    37     7    33    1
    38     8    34    1
    39    11    35    1
    40    12    36    1
    41    13    37    1
    42    13    38    1
    43    15    39    1
    44    15    40    1
    45    16    41    1
    46    17    42    1
    47    17    43    1
    48    18    44    1
    49    18    45    1
    50    19    46    1
    51    19    47    1
    52    22    48    1
    53    22    49    1
    54    22    50    1
    55    23    51    1
    56    25    52    1
    57    27    53    1
    58    28    54    1
    59    30    55    1
    60    30    56    1
    61    30    57    1
@<TRIPOS>MOLECULE
44293272
 62 69 0 0 0
SMALL
GASTEIGER

@<TRIPOS>ATOM
      1 O         117.8616  155.0703  145.0895 O.2     1  UNL111     -0.5285
      2 O         118.6794  150.5870  145.9258 O.3     1  UNL111     -0.4350
      3 O         120.4679  153.2799  144.3176 O.2     1  UNL111     -0.4000
      4 O         115.8759  157.2042  145.7032 O.2     1  UNL111     -0.5484
      5 N         116.1701  150.4207  146.1906 N.4     1  UNL111      0.4301
      6 C         117.6728  152.8494  145.8629 C.3     1  UNL111      0.0846
      7 C         118.1872  151.6969  146.7397 C.3     1  UNL111      0.0515
      8 C         116.9046  151.0964  147.4056 C.3     1  UNL111      0.0017
      9 C         120.5761  152.6928  146.7253 C.3     1  UNL111      0.0597
     10 C         118.6392  154.0436  145.7008 C.3     1  UNL111      0.1452
     11 C         119.3736  152.1412  147.6074 C.3     1  UNL111      0.0058
     12 C         116.9791  152.2518  144.6143 C.3     1  UNL111     -0.0174
     13 C         116.6521  153.7291  146.4921 C.3     1  UNL111      0.0336
     14 C         119.9879  153.3782  145.4387 C.2     1  UNL111      0.1404
     15 C         115.9745  152.0761  148.1808 C.3     1  UNL111     -0.0147
     16 C         115.8105  151.3260  145.0216 C.3     1  UNL111     -0.0334
     17 C         115.7914  153.4052  147.5111 C.3     1  UNL111     -0.0392
     18 C         121.5817  151.5700  146.3356 C.3     1  UNL111     -0.0065
     19 C         121.3961  153.7366  147.5382 C.3     1  UNL111     -0.0065
     20 C         116.7352  154.9876  145.9045 C.3     1  UNL111      0.1105
     21 C         122.9052  152.2570  146.4370 C.3     1  UNL111     -0.0671
     22 C         122.8015  153.4660  147.1143 C.3     1  UNL111     -0.0671
     23 C         115.0581  149.4952  146.5730 C.3     1  UNL111     -0.0427
     24 C         114.8893  154.4002  147.8863 C.3     1  UNL111     -0.0569
     25 C         115.8423  155.9649  146.2490 C.3     1  UNL111      0.0925
     26 C         114.9006  155.6635  147.2385 C.3     1  UNL111     -0.0139
     27 C         124.1306  151.7992  145.9778 C.3     1  UNL111     -0.0668
     28 C         123.9220  154.2440  147.3614 C.3     1  UNL111     -0.0668
     29 C         125.2808  152.5745  146.2018 C.3     1  UNL111     -0.0462
     30 C         125.1762  153.8062  146.9036 C.3     1  UNL111     -0.0462
     31 C         126.5391  152.1514  145.7465 C.3     1  UNL111     -0.0725
     32 C         126.3348  154.5653  147.1294 C.3     1  UNL111     -0.0725
     33 C         127.6790  152.9226  145.9788 C.3     1  UNL111     -0.0833
     34 C         127.5774  154.1258  146.6701 C.3     1  UNL111     -0.0833
     35 H         119.3301  150.8920  145.2621 H       1  UNL111      0.2437
     36 H         116.6035  157.2236  145.0533 H       1  UNL111      0.3393
     37 H         116.9308  149.8205  145.8173 H       1  UNL111      0.1349
     38 H         117.1815  150.2552  148.0528 H       1  UNL111      0.0968
     39 H         118.8895  154.5157  146.6729 H       1  UNL111      0.1632
     40 H         119.7280  151.3027  148.2191 H       1  UNL111      0.0589
     41 H         119.0378  152.9138  148.3108 H       1  UNL111      0.0589
     42 H         117.6988  151.6927  144.0048 H       1  UNL111      0.0565
     43 H         116.5842  153.0250  143.9425 H       1  UNL111      0.0565
     44 H         116.4358  152.2676  149.1580 H       1  UNL111      0.0633
     45 H         114.9988  151.6180  148.3697 H       1  UNL111      0.0633
     46 H         114.9209  151.8939  145.3124 H       1  UNL111      0.0743
     47 H         115.5410  150.6736  144.1839 H       1  UNL111      0.0743
     48 H         121.4291  151.1827  145.3243 H       1  UNL111      0.0547
     49 H         121.5600  150.7367  147.0461 H       1  UNL111      0.0547
     50 H         121.3109  153.5677  148.6174 H       1  UNL111      0.0547
     51 H         121.1138  154.7681  147.3062 H       1  UNL111      0.0547
     52 H         114.1981  150.0884  146.8907 H       1  UNL111      0.0670
     53 H         115.4109  148.8481  147.3794 H       1  UNL111      0.0670
     54 H         114.8053  148.8929  145.6964 H       1  UNL111      0.0670
     55 H         114.1743  154.2337  148.6908 H       1  UNL111      0.0939
     56 H         114.1899  156.4300  147.5447 H       1  UNL111      0.1139
     57 H         124.1977  150.8522  145.4499 H       1  UNL111      0.0941
     58 H         123.8292  155.1810  147.9036 H       1  UNL111      0.0941
     59 H         126.6434  151.2150  145.2037 H       1  UNL111      0.0921
     60 H         126.2804  155.5096  147.6660 H       1  UNL111      0.0921
     61 H         128.6471  152.5832  145.6192 H       1  UNL111      0.0880
     62 H         128.4664  154.7248  146.8513 H       1  UNL111      0.0880
@<TRIPOS>UNITY_ATOM_ATTR
5 1
charge 1
@<TRIPOS>BOND
     1     1    10    1
     2     1    20    1
     3     2     7    1
     4     3    14    2
     5     4    25    1
     6     5     8    1
     7     5    16    1
     8     5    23    1
     9     6     7    1
    10     6    10    1
    11     6    12    1
    12     6    13    1
    13     7     8    1
    14     7    11    1
    15     8    15    1
    16     9    11    1
    17     9    14    1
    18     9    18    1
    19     9    19    1
    20    10    14    1
    21    12    16    1
    22    13    17   ar
    23    13    20   ar
    24    15    17    1
    25    17    24   ar
    26    18    21    1
    27    19    22    1
    28    20    25   ar
    29    21    22   ar
    30    21    27   ar
    31    22    28   ar
    32    24    26   ar
    33    25    26   ar
    34    27    29   ar
    35    28    30   ar
    36    29    30   ar
    37    29    31   ar
    38    30    32   ar
    39    31    33   ar
    40    32    34   ar
    41    33    34   ar
    42     2    35    1
    43     4    36    1
    44     5    37    1
    45     8    38    1
    46    10    39    1
    47    11    40    1
    48    11    41    1
    49    12    42    1
    50    12    43    1
    51    15    44    1
    52    15    45    1
    53    16    46    1
    54    16    47    1
    55    18    48    1
    56    18    49    1
    57    19    50    1
    58    19    51    1
    59    23    52    1
    60    23    53    1
    61    23    54    1
    62    24    55    1
    63    26    56    1
    64    27    57    1
    65    28    58    1
    66    31    59    1
    67    32    60    1
    68    33    61    1
    69    34    62    1
@<TRIPOS>MOLECULE
46781850
 26 30 0 0 0
SMALL
GASTEIGER

@<TRIPOS>ATOM
      1 O         122.0883  153.7532  147.3171 O.2     1  UNL111     -0.5345
      2 O         117.3943  154.8972  146.5272 O.3     1  UNL111     -0.3004
      3 O         121.4629  156.8238  146.7620 O.3     1  UNL111     -0.2853
      4 O         123.8574  151.3234  146.8433 O.co2   1  UNL111     -0.7919
      5 N         116.7779  152.4478  146.9131 N.4     1  UNL111      0.4462
      6 C         119.6815  153.7001  147.0002 C.3     1  UNL111      0.1350
      7 C         118.3679  154.1364  145.9876 C.3     1  UNL111      0.1403
      8 C         117.6355  152.7635  145.7228 C.3     1  UNL111      0.0776
      9 C         120.9255  154.5958  147.2204 C.3     1  UNL111      0.1854
     10 C         119.0320  153.1546  148.2339 C.3     1  UNL111      0.0842
     11 C         120.4370  152.5000  146.3978 C.2     1  UNL111      0.0343
     12 C         118.9741  154.8880  144.8990 C.3     1  UNL111      0.0910
     13 C         121.1121  155.7230  146.2737 C.3     1  UNL111      0.1933
     14 C         118.5319  151.7231  145.3168 C.3     1  UNL111      0.0750
     15 C         120.2470  155.6952  145.1408 C.3     1  UNL111      0.1034
     16 C         117.6858  152.4629  148.0847 C.3     1  UNL111      0.0492
     17 C         119.8915  151.4893  145.6221 C.2     1  UNL111      0.0003
     18 C         121.7820  152.5199  146.7467 C.2     1  UNL111      0.0510
     19 C         115.8716  151.3321  146.7251 C.3     1  UNL111     -0.0303
     20 C         120.6788  150.4239  145.2585 C.2     1  UNL111     -0.0112
     21 C         122.6406  151.4392  146.4728 C.2     1  UNL111     -0.0512
     22 C         122.0117  150.4143  145.7133 C.2     1  UNL111     -0.0253
     23 H         116.3161  153.3879  147.0078 H       1  UNL111      0.1553
     24 H         116.4368  150.3998  146.6292 H       1  UNL111      0.0696
     25 H         115.2658  151.5096  145.8313 H       1  UNL111      0.0696
     26 H         115.2141  151.2745  147.5978 H       1  UNL111      0.0696
@<TRIPOS>UNITY_ATOM_ATTR
4 1
charge -1
5 1
charge 1
@<TRIPOS>BOND
     1     1     9    1
     2     1    18    1
     3     2     7    1
     4     3    13    1
     5     4    21    1
     6     5     8    1
     7     5    16    1
     8     5    19    1
     9     6     7    1
    10     6     9    1
    11     6    10    1
    12     6    11    1
    13     7     8    1
    14     7    12    1
    15     8    14    1
    16     9    13    1
    17    10    16    1
    18    11    17    2
    19    11    18    1
    20    12    15    1
    21    13    15    1
    22    14    17    1
    23    17    20    1
    24    18    21    2
    25    20    22    2
    26    21    22    1
    27     5    23    1
    28    19    24    1
    29    19    25    1
    30    19    26    1
@<TRIPOS>MOLECULE
5486890
 51 56 0 0 0
SMALL
GASTEIGER

@<TRIPOS>ATOM
      1 O         118.6852  152.6705  144.9389 O.2     1  UNL111     -0.5381
      2 O         122.0220  155.6501  146.0763 O.3     1  UNL111     -0.4359
      3 O         117.9994  153.6705  147.4671 O.3     1  UNL111     -0.4955
      4 O         117.8382  149.9018  145.4351 O.2     1  UNL111     -0.5485
      5 O         116.1287  152.3780  147.7825 O.2     1  UNL111     -0.3246
      6 N         123.6401  153.5791  146.0311 N.4     1  UNL111      0.4300
      7 C         120.7638  153.6020  145.7351 C.3     1  UNL111      0.0762
      8 C         121.4725  154.4938  146.7680 C.3     1  UNL111      0.0468
      9 C         119.3042  153.9422  145.3533 C.3     1  UNL111      0.1101
     10 C         122.7079  153.6747  147.2722 C.3     1  UNL111      0.0009
     11 C         118.4504  154.6286  146.4818 C.3     1  UNL111      0.1120
     12 C         121.6709  153.4080  144.4885 C.3     1  UNL111     -0.0188
     13 C         120.5416  155.0000  147.8709 C.3     1  UNL111     -0.0099
     14 C         120.4902  152.2489  146.2832 C.3     1  UNL111      0.0315
     15 C         119.2908  155.6545  147.2578 C.3     1  UNL111      0.0031
     16 C         122.3832  152.2832  147.8873 C.3     1  UNL111     -0.0148
     17 C         123.0531  152.8502  144.8447 C.3     1  UNL111     -0.0336
     18 C         121.2492  151.5650  147.2125 C.3     1  UNL111     -0.0395
     19 C         119.3415  151.7379  145.7122 C.3     1  UNL111      0.1078
     20 C         117.1634  155.2456  145.9336 C.3     1  UNL111      0.0437
     21 C         125.0420  153.1522  146.3383 C.3     1  UNL111     -0.0427
     22 C         120.8460  150.2632  147.5150 C.3     1  UNL111     -0.0569
     23 C         116.1952  154.1458  146.1430 C.2     1  UNL111      0.0539
     24 C         118.9491  150.4516  145.9869 C.3     1  UNL111      0.0921
     25 C         116.7197  153.2726  147.2128 C.2     1  UNL111      0.2541
     26 C         119.7117  149.7032  146.8854 C.3     1  UNL111     -0.0139
     27 C         115.0512  153.9066  145.4945 C.2     1  UNL111     -0.0741
     28 H         121.9194  156.4493  146.6315 H       1  UNL111      0.2435
     29 H         117.3593  150.6152  144.9755 H       1  UNL111      0.3393
     30 H         123.6925  154.5668  145.7215 H       1  UNL111      0.1349
     31 H         119.3153  154.6033  144.4769 H       1  UNL111      0.1492
     32 H         123.2791  154.2753  147.9908 H       1  UNL111      0.0967
     33 H         121.7930  154.3681  143.9705 H       1  UNL111      0.0563
     34 H         121.2098  152.7372  143.7513 H       1  UNL111      0.0563
     35 H         121.0576  155.7497  148.4836 H       1  UNL111      0.0534
     36 H         120.2496  154.1904  148.5488 H       1  UNL111      0.0534
     37 H         118.6995  156.0707  148.0836 H       1  UNL111      0.0577
     38 H         119.5699  156.4906  146.6061 H       1  UNL111      0.0577
     39 H         122.0858  152.4428  148.9317 H       1  UNL111      0.0633
     40 H         123.2709  151.6434  147.9013 H       1  UNL111      0.0633
     41 H         123.0262  151.7832  145.0868 H       1  UNL111      0.0743
     42 H         123.7415  152.9934  144.0044 H       1  UNL111      0.0743
     43 H         117.2496  155.5615  144.8898 H       1  UNL111      0.0749
     44 H         116.8492  156.1107  146.5296 H       1  UNL111      0.0749
     45 H         125.0444  152.0882  146.5844 H       1  UNL111      0.0670
     46 H         125.4082  153.7517  147.1754 H       1  UNL111      0.0670
     47 H         125.6532  153.3420  145.4519 H       1  UNL111      0.0670
     48 H         121.3843  149.6653  148.2483 H       1  UNL111      0.0939
     49 H         119.4015  148.6891  147.1305 H       1  UNL111      0.1139
     50 H         114.6949  154.5612  144.7060 H       1  UNL111      0.0767
     51 H         114.4322  153.0486  145.7488 H       1  UNL111      0.0767
@<TRIPOS>UNITY_ATOM_ATTR
6 1
charge 1
@<TRIPOS>BOND
     1     1     9    1
     2     1    19    1
     3     2     8    1
     4     3    11    1
     5     3    25    1
     6     4    24    1
     7     5    25    2
     8     6    10    1
     9     6    17    1
    10     6    21    1
    11     7     8    1
    12     7     9    1
    13     7    12    1
    14     7    14    1
    15     8    10    1
    16     8    13    1
    17     9    11    1
    18    10    16    1
    19    11    15    1
    20    11    20    1
    21    12    17    1
    22    13    15    1
    23    14    18   ar
    24    14    19   ar
    25    16    18    1
    26    18    22   ar
    27    19    24   ar
    28    20    23    1
    29    22    26   ar
    30    23    25    1
    31    23    27    2
    32    24    26   ar
    33     2    28    1
    34     4    29    1
    35     6    30    1
    36     9    31    1
    37    10    32    1
    38    12    33    1
    39    12    34    1
    40    13    35    1
    41    13    36    1
    42    15    37    1
    43    15    38    1
    44    16    39    1
    45    16    40    1
    46    17    41    1
    47    17    42    1
    48    20    43    1
    49    20    44    1
    50    21    45    1
    51    21    46    1
    52    21    47    1
    53    22    48    1
    54    26    49    1
    55    27    50    1
    56    27    51    1
@<TRIPOS>MOLECULE
9576842
 57 62 0 0 0
SMALL
GASTEIGER

@<TRIPOS>ATOM
      1 O         119.5020  152.8445  147.9692 O.2     1  UNL111     -0.5367
      2 O         115.8744  155.3277  146.6086 O.3     1  UNL111     -0.4357
      3 O         120.8817  150.3220  147.3608 O.2     1  UNL111     -0.5485
      4 O         127.6314  152.5189  146.7221 O.co2   1  UNL111     -0.4640
      5 O         127.3655  153.4235  144.7402 O.2     1  UNL111     -0.0997
      6 N         114.5240  153.0450  146.6594 N.4     1  UNL111      0.4301
      7 N         120.7442  154.9289  146.3061 N.2     1  UNL111     -0.2748
      8 N         121.5537  154.2945  147.1774 N.pl3   1  UNL111     -0.2827
      9 N         126.9545  153.1035  145.8648 N.pl3   1  UNL111     -0.0081
     10 C         117.3520  153.4634  147.0878 C.3     1  UNL111      0.0773
     11 C         116.5861  154.2270  145.9904 C.3     1  UNL111      0.0473
     12 C         115.4851  153.2470  145.4586 C.3     1  UNL111      0.0010
     13 C         118.7213  154.0129  147.5532 C.3     1  UNL111      0.1163
     14 C         116.4204  153.1487  148.2860 C.3     1  UNL111     -0.0186
     15 C         117.8533  152.1721  146.5405 C.3     1  UNL111      0.0320
     16 C         117.5093  154.7756  144.8962 C.3     1  UNL111     -0.0088
     17 C         116.0183  151.9050  144.8819 C.3     1  UNL111     -0.0148
     18 C         115.1497  152.4021  147.8730 C.3     1  UNL111     -0.0335
     19 C         117.2486  151.3890  145.5746 C.3     1  UNL111     -0.0394
     20 C         118.6051  155.6393  145.5082 C.3     1  UNL111      0.0093
     21 C         119.4580  154.8220  146.4589 C.2     1  UNL111      0.0460
     22 C         119.0621  151.8552  147.1232 C.3     1  UNL111      0.1084
     23 C         113.2006  152.4394  146.3008 C.3     1  UNL111     -0.0427
     24 C         117.8861  150.1913  145.2441 C.3     1  UNL111     -0.0569
     25 C         119.6923  150.6753  146.8119 C.3     1  UNL111      0.0922
     26 C         119.0962  149.8305  145.8748 C.3     1  UNL111     -0.0139
     27 C         122.8883  154.0243  146.8342 C.3     1  UNL111      0.0129
     28 C         123.7130  153.3602  147.7554 C.3     1  UNL111     -0.0215
     29 C         123.4402  154.4157  145.6058 C.3     1  UNL111     -0.0215
     30 C         125.0439  153.0582  147.4464 C.3     1  UNL111      0.0313
     31 C         124.7682  154.1193  145.2806 C.3     1  UNL111      0.0313
     32 C         125.5647  153.4338  146.2030 C.3     1  UNL111      0.1843
     33 H         115.8969  156.1124  146.0236 H       1  UNL111      0.2436
     34 H         121.2039  151.0841  147.8734 H       1  UNL111      0.3393
     35 H         114.3280  154.0194  146.9540 H       1  UNL111      0.1349
     36 H         121.2006  153.8452  148.0197 H       1  UNL111      0.2327
     37 H         114.8708  153.7571  144.7064 H       1  UNL111      0.0968
     38 H         118.6112  154.6765  148.4192 H       1  UNL111      0.1518
     39 H         116.1393  154.0856  148.7845 H       1  UNL111      0.0564
     40 H         116.9357  152.5520  149.0503 H       1  UNL111      0.0564
     41 H         116.9326  155.3895  144.1936 H       1  UNL111      0.0540
     42 H         117.9657  153.9662  144.3155 H       1  UNL111      0.0540
     43 H         116.2911  152.0814  143.8334 H       1  UNL111      0.0633
     44 H         115.2411  151.1347  144.8855 H       1  UNL111      0.0633
     45 H         115.3393  151.3506  147.6357 H       1  UNL111      0.0743
     46 H         114.4109  152.4447  148.6808 H       1  UNL111      0.0743
     47 H         118.1887  156.4848  146.0663 H       1  UNL111      0.0602
     48 H         119.2346  156.0509  144.7111 H       1  UNL111      0.0602
     49 H         113.3447  151.3829  146.0649 H       1  UNL111      0.0670
     50 H         112.7948  152.9833  145.4444 H       1  UNL111      0.0670
     51 H         112.5351  152.5528  147.1608 H       1  UNL111      0.0670
     52 H         117.4755  149.5284  144.4840 H       1  UNL111      0.0939
     53 H         119.5910  148.8990  145.6055 H       1  UNL111      0.1139
     54 H         123.3265  153.0691  148.7291 H       1  UNL111      0.1069
     55 H         122.8281  154.9495  144.8821 H       1  UNL111      0.1069
     56 H         125.6540  152.5345  148.1797 H       1  UNL111      0.1325
     57 H         125.1571  154.4269  144.3123 H       1  UNL111      0.1325
@<TRIPOS>UNITY_ATOM_ATTR
4 1
charge -1
6 1
charge 1
9 1
charge 1
@<TRIPOS>BOND
     1     1    13    1
     2     1    22    1
     3     2    11    1
     4     3    25    1
     5     4     9    1
     6     5     9    2
     7     6    12    1
     8     6    18    1
     9     6    23    1
    10     7     8    1
    11     7    21    2
    12     8    27    1
    13     9    32    1
    14    10    11    1
    15    10    13    1
    16    10    14    1
    17    10    15    1
    18    11    12    1
    19    11    16    1
    20    12    17    1
    21    13    21    1
    22    14    18    1
    23    15    19   ar
    24    15    22   ar
    25    16    20    1
    26    17    19    1
    27    19    24   ar
    28    20    21    1
    29    22    25   ar
    30    24    26   ar
    31    25    26   ar
    32    27    28   ar
    33    27    29   ar
    34    28    30   ar
    35    29    31   ar
    36    30    32   ar
    37    31    32   ar
    38     2    33    1
    39     3    34    1
    40     6    35    1
    41     8    36    1
    42    12    37    1
    43    13    38    1
    44    14    39    1
    45    14    40    1
    46    16    41    1
    47    16    42    1
    48    17    43    1
    49    17    44    1
    50    18    45    1
    51    18    46    1
    52    20    47    1
    53    20    48    1
    54    23    49    1
    55    23    50    1
    56    23    51    1
    57    24    52    1
    58    26    53    1
    59    28    54    1
    60    29    55    1
    61    30    56    1
    62    31    57    1
@<TRIPOS>MOLECULE
9577748
 45 49 0 0 0
SMALL
GASTEIGER

@<TRIPOS>ATOM
      1 O         117.8109  152.4319  145.3930 O.3     1  UNL111     -0.5368
      2 O         120.9275  155.5889  146.3788 O.3     1  UNL111     -0.4357
      3 O         117.0891  149.7071  146.0753 O.3     1  UNL111     -0.5485
      4 N         122.8711  153.8418  145.9842 N.4     1  UNL111      0.4301
      5 N         117.7109  155.8969  145.8979 N.2     1  UNL111     -0.2816
      6 N         117.4258  156.8622  146.7928 N.pl3   1  UNL111     -0.3560
      7 C         120.0227  153.4096  145.7671 C.3     1  UNL111      0.0772
      8 C         120.6251  154.2715  146.9043 C.3     1  UNL111      0.0473
      9 C         122.0121  153.6260  147.2511 C.3     1  UNL111      0.0010
     10 C         118.5442  153.6787  145.3949 C.3     1  UNL111      0.1159
     11 C         120.9140  153.4280  144.5043 C.3     1  UNL111     -0.0186
     12 C         119.8813  152.0295  146.2934 C.ar    1  UNL111      0.0320
     13 C         119.7191  154.4321  148.1542 C.3     1  UNL111     -0.0088
     14 C         121.9574  152.1269  147.6747 C.3     1  UNL111     -0.0148
     15 C         122.3794  153.0958  144.7745 C.3     1  UNL111     -0.0335
     16 C         120.7766  151.3712  147.1202 C.ar    1  UNL111     -0.0394
     17 C         118.2142  154.4028  147.8444 C.3     1  UNL111      0.0088
     18 C         118.0262  154.7295  146.3791 C.2     1  UNL111      0.0440
     19 C         118.6415  151.5190  145.9849 C.ar    1  UNL111      0.1084
     20 C         124.3459  153.7077  146.2037 C.3     1  UNL111     -0.0427
     21 C         120.4459  150.0700  147.5083 C.ar    1  UNL111     -0.0569
     22 C         118.3017  150.2431  146.3684 C.ar    1  UNL111      0.0922
     23 C         119.2184  149.5008  147.1119 C.ar    1  UNL111     -0.0139
     24 H         120.1071  156.1357  146.3847 H       1  UNL111      0.2436
     25 H         116.5924  150.3743  145.5654 H       1  UNL111      0.3393
     26 H         122.6997  154.8468  145.7818 H       1  UNL111      0.1349
     27 H         117.2508  157.7471  146.3014 H       1  UNL111      0.2197
     28 H         116.5330  156.6764  147.2659 H       1  UNL111      0.2197
     29 H         122.5148  154.2188  148.0251 H       1  UNL111      0.0968
     30 H         118.4566  154.0976  144.3842 H       1  UNL111      0.1518
     31 H         120.8636  154.4251  144.0463 H       1  UNL111      0.0564
     32 H         120.5347  152.7295  143.7467 H       1  UNL111      0.0564
     33 H         119.9540  155.3860  148.6447 H       1  UNL111      0.0540
     34 H         119.9214  153.6534  148.8984 H       1  UNL111      0.0540
     35 H         121.8649  152.1036  148.7685 H       1  UNL111      0.0633
     36 H         122.8831  151.6005  147.4225 H       1  UNL111      0.0633
     37 H         122.5397  152.0269  144.9471 H       1  UNL111      0.0743
     38 H         122.9981  153.4045  143.9247 H       1  UNL111      0.0743
     39 H         117.6675  155.0767  148.5085 H       1  UNL111      0.0601
     40 H         117.8116  153.4006  148.0272 H       1  UNL111      0.0601
     41 H         124.5863  152.6566  146.3773 H       1  UNL111      0.0670
     42 H         124.6230  154.3218  147.0641 H       1  UNL111      0.0670
     43 H         124.8544  154.0751  145.3084 H       1  UNL111      0.0670
     44 H         121.1055  149.4930  148.1547 H       1  UNL111      0.0939
     45 H         118.9583  148.4932  147.4306 H       1  UNL111      0.1139
@<TRIPOS>UNITY_ATOM_ATTR
4 1
charge 1
@<TRIPOS>BOND
     1     1    10    1
     2     1    19    1
     3     2     8    1
     4     3    22    1
     5     4     9    1
     6     4    15    1
     7     4    20    1
     8     5     6    1
     9     5    18    2
    10     7     8    1
    11     7    10    1
    12     7    11    1
    13     7    12    1
    14     8     9    1
    15     8    13    1
    16     9    14    1
    17    10    18    1
    18    11    15    1
    19    12    16   ar
    20    12    19   ar
    21    13    17    1
    22    14    16    1
    23    16    21   ar
    24    17    18    1
    25    19    22   ar
    26    21    23   ar
    27    22    23   ar
    28     2    24    1
    29     3    25    1
    30     4    26    1
    31     6    27    1
    32     6    28    1
    33     9    29    1
    34    10    30    1
    35    11    31    1
    36    11    32    1
    37    13    33    1
    38    13    34    1
    39    14    35    1
    40    14    36    1
    41    15    37    1
    42    15    38    1
    43    17    39    1
    44    17    40    1
    45    20    41    1
    46    20    42    1
    47    20    43    1
    48    21    44    1
    49    23    45    1
@<TRIPOS>MOLECULE
44293247
 45 50 0 0 0
SMALL
GASTEIGER

@<TRIPOS>ATOM
      1 O         121.7750  153.0993  145.0898 O.3     1  UNL111     -0.5404
      2 O         117.8060  150.8926  146.0688 O.3     1  UNL111     -0.4360
      3 O         123.2140  155.5532  145.7482 O.3     1  UNL111     -0.5485
      4 N         122.7090  150.4084  146.2124 N.3     1  UNL111     -0.2688
      5 N         122.7343  151.4760  147.1414 N.3     1  UNL111     -0.2688
      6 N         116.6815  153.2474  145.9622 N.4     1  UNL111      0.4300
      7 C         119.4999  152.6279  145.7548 C.3     1  UNL111      0.0743
      8 C         118.5882  151.9039  146.7575 C.3     1  UNL111      0.0461
      9 C         120.8598  151.9805  145.4038 C.3     1  UNL111      0.1022
     10 C         121.4511  151.1066  146.5307 C.3     1  UNL111      0.0787
     11 C         117.5293  152.9597  147.2303 C.3     1  UNL111      0.0008
     12 C         119.3523  151.2509  147.9124 C.3     1  UNL111     -0.0118
     13 C         120.4737  150.3479  147.3985 C.3     1  UNL111     -0.0050
     14 C         118.6953  153.0227  144.4887 C.3     1  UNL111     -0.0192
     15 C         120.0395  153.8782  146.3573 C.ar    1  UNL111      0.0310
     16 C         118.1063  154.2519  147.8717 C.3     1  UNL111     -0.0148
     17 C         117.4450  153.8493  144.8090 C.3     1  UNL111     -0.0337
     18 C         119.4118  154.6969  147.2766 C.ar    1  UNL111     -0.0396
     19 C         121.3051  154.1255  145.8719 C.ar    1  UNL111      0.1071
     20 C         120.0907  155.8573  147.6570 C.ar    1  UNL111     -0.0569
     21 C         115.3796  153.9372  146.2276 C.3     1  UNL111     -0.0427
     22 C         121.9743  155.2717  146.2231 C.ar    1  UNL111      0.0920
     23 C         121.3614  156.1504  147.1160 C.ar    1  UNL111     -0.0140
     24 H         118.3419  150.0896  145.9226 H       1  UNL111      0.2435
     25 H         123.4642  154.8362  145.1358 H       1  UNL111      0.3393
     26 H         122.8146  149.5243  146.7197 H       1  UNL111      0.1835
     27 H         123.1333  152.3078  146.6908 H       1  UNL111      0.1835
     28 H         116.4421  152.2858  145.6532 H       1  UNL111      0.1349
     29 H         120.7704  151.3636  144.5006 H       1  UNL111      0.1459
     30 H         116.8221  152.4868  147.9233 H       1  UNL111      0.0967
     31 H         118.6663  150.6429  148.5147 H       1  UNL111      0.0529
     32 H         119.7825  152.0086  148.5773 H       1  UNL111      0.0529
     33 H         120.9819  149.9053  148.2657 H       1  UNL111      0.0545
     34 H         120.0657  149.5057  146.8284 H       1  UNL111      0.0545
     35 H         118.3949  152.1141  143.9506 H       1  UNL111      0.0562
     36 H         119.3121  153.5924  143.7811 H       1  UNL111      0.0562
     37 H         118.2925  154.0408  148.9327 H       1  UNL111      0.0633
     38 H         117.3822  155.0714  147.8306 H       1  UNL111      0.0633
     39 H         117.6845  154.8848  145.0704 H       1  UNL111      0.0743
     40 H         116.7722  153.8600  143.9444 H       1  UNL111      0.0743
     41 H         119.6619  156.5434  148.3858 H       1  UNL111      0.0939
     42 H         115.5756  154.9798  146.4868 H       1  UNL111      0.0670
     43 H         114.8737  153.4160  147.0441 H       1  UNL111      0.0670
     44 H         114.7753  153.8754  145.3186 H       1  UNL111      0.0670
     45 H         121.8843  157.0556  147.4191 H       1  UNL111      0.1139
@<TRIPOS>UNITY_ATOM_ATTR
6 1
charge 1
@<TRIPOS>BOND
     1     1     9    1
     2     1    19    1
     3     2     8    1
     4     3    22    1
     5     4     5    1
     6     4    10    1
     7     5    10    1
     8     6    11    1
     9     6    17    1
    10     6    21    1
    11     7     8    1
    12     7     9    1
    13     7    14    1
    14     7    15    1
    15     8    11    1
    16     8    12    1
    17     9    10    1
    18    10    13    1
    19    11    16    1
    20    12    13    1
    21    14    17    1
    22    15    18   ar
    23    15    19   ar
    24    16    18    1
    25    18    20   ar
    26    19    22   ar
    27    20    23   ar
    28    22    23   ar
    29     2    24    1
    30     3    25    1
    31     4    26    1
    32     5    27    1
    33     6    28    1
    34     9    29    1
    35    11    30    1
    36    12    31    1
    37    12    32    1
    38    13    33    1
    39    13    34    1
    40    14    35    1
    41    14    36    1
    42    16    37    1
    43    16    38    1
    44    17    39    1
    45    17    40    1
    46    20    41    1
    47    21    42    1
    48    21    43    1
    49    21    44    1
    50    23    45    1
@<TRIPOS>MOLECULE
44293268
 60 66 0 0 0
SMALL
GASTEIGER

@<TRIPOS>ATOM
      1 O         117.6350  151.5710  148.2378 O.2     1  UNL111     -0.5285
      2 O         119.9477  155.3984  147.0198 O.3     1  UNL111     -0.4350
      3 O         119.9612  150.4045  147.5053 O.2     1  UNL111     -0.4000
      4 O         115.5896  149.7406  147.2105 O.2     1  UNL111     -0.5484
      5 O         124.4837  154.4591  147.7542 O.2     1  UNL111     -0.5823
      6 N         117.6733  156.2608  146.1268 N.4     1  UNL111      0.4301
      7 C         118.2612  153.6366  147.1932 C.3     1  UNL111      0.0846
      8 C         119.2506  154.3673  146.2830 C.3     1  UNL111      0.0515
      9 C         118.3764  155.1835  145.2562 C.3     1  UNL111      0.0017
     10 C         120.9370  152.3604  146.4942 C.3     1  UNL111      0.0622
     11 C         118.7869  152.4524  148.0190 C.3     1  UNL111      0.1452
     12 C         120.2593  153.4370  145.5934 C.3     1  UNL111      0.0061
     13 C         117.4621  154.6581  148.0450 C.3     1  UNL111     -0.0174
     14 C         117.2813  152.8579  146.3870 C.3     1  UNL111      0.0336
     15 C         119.8892  151.6212  147.3255 C.2     1  UNL111      0.1407
     16 C         117.3717  154.3538  144.4080 C.3     1  UNL111     -0.0147
     17 C         116.7532  155.7201  147.1934 C.3     1  UNL111     -0.0334
     18 C         116.7910  153.1758  145.1361 C.3     1  UNL111     -0.0392
     19 C         122.0472  152.9016  147.4311 C.3     1  UNL111      0.0068
     20 C         121.7102  151.3592  145.5668 C.3     1  UNL111     -0.0042
     21 C         116.9182  151.7175  147.0741 C.3     1  UNL111      0.1105
     22 C         123.2472  152.9001  146.5351 C.3     1  UNL111     -0.0164
     23 C         123.0568  152.0090  145.4748 C.3     1  UNL111     -0.0551
     24 C         117.0718  157.3919  145.3503 C.3     1  UNL111     -0.0427
     25 C         115.8312  152.3146  144.5991 C.3     1  UNL111     -0.0569
     26 C         115.9692  150.8697  146.5617 C.3     1  UNL111      0.0925
     27 C         115.4107  151.1748  145.3201 C.3     1  UNL111     -0.0139
     28 C         124.4291  153.6112  146.6862 C.3     1  UNL111      0.0381
     29 C         124.0512  151.7899  144.5408 C.3     1  UNL111     -0.0758
     30 C         125.4321  153.4069  145.7356 C.3     1  UNL111     -0.0302
     31 C         125.2443  152.5009  144.6746 C.3     1  UNL111     -0.0694
     32 C         125.7205  155.1307  147.9701 C.3     1  UNL111      0.0296
     33 H         120.4097  155.0336  147.7947 H       1  UNL111      0.2437
     34 H         116.1760  149.6407  147.9849 H       1  UNL111      0.3393
     35 H         118.4802  156.6656  146.6390 H       1  UNL111      0.1349
     36 H         119.0322  155.7612  144.5926 H       1  UNL111      0.0968
     37 H         119.1750  152.7720  148.9926 H       1  UNL111      0.1632
     38 H         121.0312  154.0520  145.1125 H       1  UNL111      0.0589
     39 H         119.7427  152.9086  144.7822 H       1  UNL111      0.0589
     40 H         118.1410  155.1572  148.7485 H       1  UNL111      0.0565
     41 H         116.7083  154.1609  148.6697 H       1  UNL111      0.0565
     42 H         117.9148  153.9603  143.5392 H       1  UNL111      0.0633
     43 H         116.5651  154.9841  144.0213 H       1  UNL111      0.0633
     44 H         115.8606  155.3274  146.6965 H       1  UNL111      0.0743
     45 H         116.4534  156.5653  147.8226 H       1  UNL111      0.0743
     46 H         122.2261  152.2278  148.2780 H       1  UNL111      0.0579
     47 H         121.8570  153.8958  147.8240 H       1  UNL111      0.0579
     48 H         121.2433  151.2534  144.5824 H       1  UNL111      0.0550
     49 H         121.8296  150.3645  146.0095 H       1  UNL111      0.0550
     50 H         116.1707  157.0375  144.8454 H       1  UNL111      0.0670
     51 H         117.8133  157.7485  144.6312 H       1  UNL111      0.0670
     52 H         116.8268  158.1901  146.0560 H       1  UNL111      0.0670
     53 H         115.4051  152.4953  143.6133 H       1  UNL111      0.0939
     54 H         114.6665  150.5060  144.8913 H       1  UNL111      0.1139
     55 H         123.9193  151.0810  143.7290 H       1  UNL111      0.0900
     56 H         126.3829  153.9285  145.7879 H       1  UNL111      0.1105
     57 H         126.0458  152.3471  143.9545 H       1  UNL111      0.0911
     58 H         125.6177  155.7347  148.8768 H       1  UNL111      0.1069
     59 H         125.9477  155.8101  147.1420 H       1  UNL111      0.1069
     60 H         126.5356  154.4180  148.1341 H       1  UNL111      0.1069
@<TRIPOS>UNITY_ATOM_ATTR
6 1
charge 1
@<TRIPOS>BOND
     1     1    11    1
     2     1    21    1
     3     2     8    1
     4     3    15    2
     5     4    26    1
     6     5    28    1
     7     5    32    1
     8     6     9    1
     9     6    17    1
    10     6    24    1
    11     7     8    1
    12     7    11    1
    13     7    13    1
    14     7    14    1
    15     8     9    1
    16     8    12    1
    17     9    16    1
    18    10    12    1
    19    10    15    1
    20    10    19    1
    21    10    20    1
    22    11    15    1
    23    13    17    1
    24    14    18   ar
    25    14    21   ar
    26    16    18    1
    27    18    25   ar
    28    19    22    1
    29    20    23    1
    30    21    26   ar
    31    22    23   ar
    32    22    28   ar
    33    23    29   ar
    34    25    27   ar
    35    26    27   ar
    36    28    30   ar
    37    29    31   ar
    38    30    31   ar
    39     2    33    1
    40     4    34    1
    41     6    35    1
    42     9    36    1
    43    11    37    1
    44    12    38    1
    45    12    39    1
    46    13    40    1
    47    13    41    1
    48    16    42    1
    49    16    43    1
    50    17    44    1
    51    17    45    1
    52    19    46    1
    53    19    47    1
    54    20    48    1
    55    20    49    1
    56    24    50    1
    57    24    51    1
    58    24    52    1
    59    25    53    1
    60    27    54    1
    61    29    55    1
    62    30    56    1
    63    31    57    1
    64    32    58    1
    65    32    59    1
    66    32    60    1
@<TRIPOS>MOLECULE
76973798
 26 30 0 0 0
SMALL
GASTEIGER

@<TRIPOS>ATOM
      1 O         117.6989  153.7128  145.3599 O.2     1  UNL111     -0.5242
      2 O         122.2025  154.9693  146.2930 O.3     1  UNL111     -0.2996
      3 O         117.8975  156.6540  146.1897 O.2     1  UNL111     -0.3918
      4 O         115.8500  151.4705  146.0429 O.co2   1  UNL111     -0.7918
      5 N         123.0135  152.4808  145.9765 N.4     1  UNL111      0.4463
      6 C         120.0769  153.6602  145.7765 C.3     1  UNL111      0.1438
      7 C         121.3156  154.1265  146.8312 C.3     1  UNL111      0.1447
      8 C         122.1018  152.7850  147.1235 C.3     1  UNL111      0.0784
      9 C         118.8511  154.5420  145.4875 C.3     1  UNL111      0.2157
     10 C         120.7852  153.1169  144.5770 C.3     1  UNL111      0.0866
     11 C         119.3157  152.4770  146.3693 C.2     1  UNL111      0.0368
     12 C         120.6662  154.8385  147.9221 C.3     1  UNL111      0.1061
     13 C         121.2017  151.7292  147.5046 C.3     1  UNL111      0.0751
     14 C         122.1531  152.4743  144.7700 C.3     1  UNL111      0.0496
     15 C         119.8426  151.4861  147.1840 C.2     1  UNL111      0.0007
     16 C         119.4199  155.6603  147.6455 C.3     1  UNL111      0.1440
     17 C         118.6434  155.7138  146.4260 C.2     1  UNL111      0.1782
     18 C         117.9759  152.5171  146.0116 C.2     1  UNL111      0.0547
     19 C         123.9058  151.3493  146.2010 C.3     1  UNL111     -0.0303
     20 C         119.0211  150.4664  147.5992 C.2     1  UNL111     -0.0112
     21 C         117.0808  151.5083  146.3681 C.2     1  UNL111     -0.0507
     22 C         117.6782  150.4922  147.1656 C.2     1  UNL111     -0.0253
     23 H         123.5046  153.4001  145.8903 H       1  UNL111      0.1553
     24 H         123.3287  150.4211  146.2584 H       1  UNL111      0.0696
     25 H         124.4654  151.5158  147.1264 H       1  UNL111      0.0696
     26 H         124.6058  151.2968  145.3617 H       1  UNL111      0.0696
@<TRIPOS>UNITY_ATOM_ATTR
4 1
charge -1
5 1
charge 1
@<TRIPOS>BOND
     1     1     9    1
     2     1    18    1
     3     2     7    1
     4     3    17    2
     5     4    21    1
     6     5     8    1
     7     5    14    1
     8     5    19    1
     9     6     7    1
    10     6     9    1
    11     6    10    1
    12     6    11    1
    13     7     8    1
    14     7    12    1
    15     8    13    1
    16     9    17    1
    17    10    14    1
    18    11    15    2
    19    11    18    1
    20    12    16    1
    21    13    15    1
    22    15    20    1
    23    16    17    1
    24    18    21    2
    25    20    22    2
    26    21    22    1
    27     5    23    1
    28    19    24    1
    29    19    25    1
    30    19    26    1
@<TRIPOS>MOLECULE
44444966
 56 62 0 0 0
SMALL
GASTEIGER

@<TRIPOS>ATOM
      1 O         118.8929  154.8944  144.7512 O.2     1  UNL111     -0.5285
      2 O         119.4956  150.4345  145.8454 O.3     1  UNL111     -0.4350
      3 O         121.2875  155.0813  145.9911 O.2     1  UNL111     -0.4000
      4 O         117.4759  157.2820  145.6830 O.2     1  UNL111     -0.5484
      5 N         116.9218  150.3971  146.2896 N.4     1  UNL111      0.4301
      6 C         118.5631  152.6847  145.6265 C.3     1  UNL111      0.0846
      7 C         119.0604  151.5991  146.5866 C.3     1  UNL111      0.0515
      8 C         117.7900  151.0963  147.3708 C.3     1  UNL111      0.0017
      9 C         119.6040  153.6425  145.0238 C.3     1  UNL111      0.1452
     10 C         121.3601  152.7987  146.8091 C.3     1  UNL111      0.0596
     11 C         120.1899  152.0707  147.5142 C.3     1  UNL111      0.0058
     12 C         117.6254  152.0673  144.5570 C.3     1  UNL111     -0.0174
     13 C         117.7895  153.7195  146.3666 C.3     1  UNL111      0.0336
     14 C         120.7927  153.9542  145.9631 C.2     1  UNL111      0.1404
     15 C         117.0051  152.1857  148.1545 C.3     1  UNL111     -0.0147
     16 C         116.4513  151.2929  145.1695 C.3     1  UNL111     -0.0334
     17 C         117.0081  153.5322  147.4896 C.3     1  UNL111     -0.0392
     18 C         122.2291  151.8784  145.9101 C.3     1  UNL111     -0.0070
     19 C         122.3341  153.3512  147.8989 C.3     1  UNL111     -0.0070
     20 C         117.9768  154.9513  145.7737 C.3     1  UNL111      0.1105
     21 C         123.6118  152.4018  146.1210 C.3     1  UNL111     -0.0711
     22 C         123.6707  153.2318  147.2395 C.3     1  UNL111     -0.0711
     23 C         115.8313  149.5263  146.8369 C.3     1  UNL111     -0.0427
     24 C         116.3329  154.6522  147.9806 C.3     1  UNL111     -0.0569
     25 C         117.3122  156.0567  146.2413 C.3     1  UNL111      0.0925
     26 C         116.4728  155.9062  147.3453 C.3     1  UNL111     -0.0139
     27 C         124.7486  152.1179  145.3817 C.3     1  UNL111     -0.0813
     28 C         124.8660  153.8022  147.6441 C.3     1  UNL111     -0.0813
     29 C         125.9572  152.6955  145.7756 C.3     1  UNL111     -0.0856
     30 C         126.0153  153.5331  146.8991 C.3     1  UNL111     -0.0856
     31 H         120.2311  150.6488  145.2441 H       1  UNL111      0.2437
     32 H         118.1948  157.2066  145.0262 H       1  UNL111      0.3393
     33 H         117.6089  149.7525  145.8554 H       1  UNL111      0.1349
     34 H         118.0758  150.2842  148.0511 H       1  UNL111      0.0968
     35 H         120.0134  153.2635  144.0809 H       1  UNL111      0.1632
     36 H         120.5881  151.2030  148.0572 H       1  UNL111      0.0589
     37 H         119.7800  152.7487  148.2738 H       1  UNL111      0.0589
     38 H         118.2025  151.3924  143.9116 H       1  UNL111      0.0565
     39 H         117.2170  152.8352  143.8868 H       1  UNL111      0.0565
     40 H         117.4914  152.3076  149.1309 H       1  UNL111      0.0633
     41 H         115.9752  151.8706  148.3480 H       1  UNL111      0.0633
     42 H         115.6801  151.9561  145.5735 H       1  UNL111      0.0743
     43 H         115.9904  150.6501  144.4115 H       1  UNL111      0.0743
     44 H         121.9569  151.9367  144.8519 H       1  UNL111      0.0547
     45 H         122.1985  150.8359  146.2457 H       1  UNL111      0.0547
     46 H         122.3312  152.7225  148.7973 H       1  UNL111      0.0547
     47 H         122.1157  154.3833  148.1897 H       1  UNL111      0.0547
     48 H         115.0381  150.1596  147.2397 H       1  UNL111      0.0670
     49 H         116.2587  148.8865  147.6129 H       1  UNL111      0.0670
     50 H         115.4509  148.9107  146.0173 H       1  UNL111      0.0670
     51 H         115.7056  154.5843  148.8682 H       1  UNL111      0.0939
     52 H         115.9489  156.7754  147.7390 H       1  UNL111      0.1139
     53 H         124.7150  151.4653  144.5153 H       1  UNL111      0.0893
     54 H         124.9155  154.4488  148.5150 H       1  UNL111      0.0893
     55 H         126.8643  152.4956  145.2096 H       1  UNL111      0.0876
     56 H         126.9649  153.9756  147.1921 H       1  UNL111      0.0876
@<TRIPOS>UNITY_ATOM_ATTR
5 1
charge 1
@<TRIPOS>BOND
     1     1     9    1
     2     1    20    1
     3     2     7    1
     4     3    14    2
     5     4    25    1
     6     5     8    1
     7     5    16    1
     8     5    23    1
     9     6     7    1
    10     6     9    1
    11     6    12    1
    12     6    13    1
    13     7     8    1
    14     7    11    1
    15     8    15    1
    16     9    14    1
    17    10    11    1
    18    10    14    1
    19    10    18    1
    20    10    19    1
    21    12    16    1
    22    13    17   ar
    23    13    20   ar
    24    15    17    1
    25    17    24   ar
    26    18    21    1
    27    19    22    1
    28    20    25   ar
    29    21    22   ar
    30    21    27   ar
    31    22    28   ar
    32    24    26   ar
    33    25    26   ar
    34    27    29   ar
    35    28    30   ar
    36    29    30   ar
    37     2    31    1
    38     4    32    1
    39     5    33    1
    40     8    34    1
    41     9    35    1
    42    11    36    1
    43    11    37    1
    44    12    38    1
    45    12    39    1
    46    15    40    1
    47    15    41    1
    48    16    42    1
    49    16    43    1
    50    18    44    1
    51    18    45    1
    52    19    46    1
    53    19    47    1
    54    23    48    1
    55    23    49    1
    56    23    50    1
    57    24    51    1
    58    26    52    1
    59    27    53    1
    60    28    54    1
    61    29    55    1
    62    30    56    1
@<TRIPOS>MOLECULE
5486981
 41 45 0 0 0
SMALL
GASTEIGER

@<TRIPOS>ATOM
      1 O         117.6560  153.5731  145.1659 O.2     1  UNL111     -0.5283
      2 O         121.7461  155.3948  146.1232 O.3     1  UNL111     -0.4310
      3 O         122.0426  150.9265  147.9494 O.2     1  UNL111     -0.3905
      4 O         117.0272  155.5411  146.9908 O.2     1  UNL111     -0.4035
      5 O         116.0011  151.2530  145.8213 O.2     1  UNL111     -0.5484
      6 N         122.8059  153.0210  145.6540 N.4     1  UNL111      0.4391
      7 C         119.9972  153.7808  145.7015 C.3     1  UNL111      0.0919
      8 C         120.9991  154.3148  146.7360 C.3     1  UNL111      0.0700
      9 C         122.0096  153.1521  146.9878 C.3     1  UNL111      0.0836
     10 C         118.6806  154.5626  145.5034 C.3     1  UNL111      0.1438
     11 C         120.7097  153.4947  144.3524 C.3     1  UNL111     -0.0158
     12 C         119.3869  152.5260  146.2199 C.3     1  UNL111      0.0600
     13 C         120.3204  154.8516  148.0026 C.3     1  UNL111      0.0016
     14 C         121.9509  152.6021  144.4814 C.3     1  UNL111     -0.0290
     15 C         119.2849  155.9158  147.6471 C.3     1  UNL111      0.0368
     16 C         119.9805  151.5623  147.0092 C.3     1  UNL111      0.0582
     17 C         121.3813  151.8076  147.4129 C.2     1  UNL111      0.1443
     18 C         118.2159  155.3370  146.7501 C.2     1  UNL111      0.1307
     19 C         118.0648  152.4518  145.8430 C.3     1  UNL111      0.1153
     20 C         124.0379  152.1707  145.7984 C.3     1  UNL111     -0.0384
     21 C         119.2335  150.4416  147.3646 C.3     1  UNL111     -0.0304
     22 C         117.3053  151.3563  146.1793 C.3     1  UNL111      0.0937
     23 C         117.8933  150.3382  146.9359 C.3     1  UNL111     -0.0091
     24 H         121.9940  156.0630  146.7957 H       1  UNL111      0.2445
     25 H         115.7423  152.0935  145.3961 H       1  UNL111      0.3393
     26 H         123.1173  153.9871  145.4521 H       1  UNL111      0.1416
     27 H         122.7403  153.4661  147.7427 H       1  UNL111      0.1324
     28 H         118.7560  155.2844  144.6820 H       1  UNL111      0.1628
     29 H         121.0104  154.4472  143.8964 H       1  UNL111      0.0567
     30 H         120.0239  153.0272  143.6336 H       1  UNL111      0.0567
     31 H         121.0684  155.3033  148.6657 H       1  UNL111      0.0561
     32 H         119.8386  154.0457  148.5679 H       1  UNL111      0.0561
     33 H         121.6796  151.5509  144.6250 H       1  UNL111      0.0750
     34 H         122.5718  152.6810  143.5825 H       1  UNL111      0.0750
     35 H         119.7358  156.7743  147.1392 H       1  UNL111      0.0708
     36 H         118.8120  156.2817  148.5651 H       1  UNL111      0.0708
     37 H         123.7390  151.1294  145.9372 H       1  UNL111      0.0677
     38 H         124.6090  152.5385  146.6543 H       1  UNL111      0.0677
     39 H         124.6264  152.2819  144.8839 H       1  UNL111      0.0677
     40 H         119.6655  149.6496  147.9742 H       1  UNL111      0.1001
     41 H         117.2995  149.4688  147.2146 H       1  UNL111      0.1146
@<TRIPOS>UNITY_ATOM_ATTR
6 1
charge 1
@<TRIPOS>BOND
     1     1    10    1
     2     1    19    1
     3     2     8    1
     4     3    17    2
     5     4    18    2
     6     5    22    1
     7     6     9    1
     8     6    14    1
     9     6    20    1
    10     7     8    1
    11     7    10    1
    12     7    11    1
    13     7    12    1
    14     8     9    1
    15     8    13    1
    16     9    17    1
    17    10    18    1
    18    11    14    1
    19    12    16   ar
    20    12    19   ar
    21    13    15    1
    22    15    18    1
    23    16    17    1
    24    16    21   ar
    25    19    22   ar
    26    21    23   ar
    27    22    23   ar
    28     2    24    1
    29     5    25    1
    30     6    26    1
    31     9    27    1
    32    10    28    1
    33    11    29    1
    34    11    30    1
    35    13    31    1
    36    13    32    1
    37    14    33    1
    38    14    34    1
    39    15    35    1
    40    15    36    1
    41    20    37    1
    42    20    38    1
    43    20    39    1
    44    21    40    1
    45    23    41    1
@<TRIPOS>MOLECULE
5497189
 39 43 0 0 0
SMALL
GASTEIGER

@<TRIPOS>ATOM
      1 O         121.3879  154.1711  147.6984 O.2     1  UNL111     -0.5290
      2 O         116.8912  153.9313  146.7718 O.3     1  UNL111     -0.4355
      3 O         121.0024  156.3688  146.0579 O.2     1  UNL111     -0.4035
      4 O         123.9228  152.9173  146.9583 O.2     1  UNL111     -0.5484
      5 N         117.1969  151.2869  146.9631 N.4     1  UNL111      0.4363
      6 C         119.2164  153.3215  147.0922 C.3     1  UNL111      0.0837
      7 C         118.0558  153.4179  146.0840 C.3     1  UNL111      0.0496
      8 C         117.7114  151.9464  145.6813 C.3     1  UNL111      0.0057
      9 C         120.0206  154.5989  147.4029 C.3     1  UNL111      0.1427
     10 C         118.7604  152.5986  148.3866 C.3     1  UNL111     -0.0173
     11 C         120.3336  152.5421  146.4906 C.3     1  UNL111      0.0334
     12 C         118.3804  154.3344  144.8976 C.3     1  UNL111     -0.0023
     13 C         118.8727  151.1255  145.0577 C.3     1  UNL111     -0.0145
     14 C         118.1507  151.2238  148.1128 C.3     1  UNL111     -0.0289
     15 C         120.2270  151.4858  145.6038 C.3     1  UNL111     -0.0393
     16 C         118.8142  155.7147  145.3836 C.3     1  UNL111      0.0363
     17 C         120.0516  155.6111  146.2451 C.2     1  UNL111      0.1306
     18 C         121.5411  153.0481  146.9239 C.3     1  UNL111      0.1104
     19 C         121.4189  150.8745  145.2084 C.3     1  UNL111     -0.0569
     20 C         122.7173  152.4495  146.5479 C.3     1  UNL111      0.0925
     21 C         122.6582  151.3468  145.6946 C.3     1  UNL111     -0.0139
     22 H         116.3902  154.5371  146.1879 H       1  UNL111      0.2436
     23 H         123.7600  153.7457  147.4491 H       1  UNL111      0.3393
     24 H         116.8115  150.3535  146.7683 H       1  UNL111      0.1391
     25 H         116.4010  151.8729  147.2699 H       1  UNL111      0.1391
     26 H         116.8419  151.9247  145.0141 H       1  UNL111      0.0968
     27 H         119.6217  155.1236  148.2788 H       1  UNL111      0.1627
     28 H         118.0223  153.2203  148.9100 H       1  UNL111      0.0564
     29 H         119.5930  152.4726  149.0912 H       1  UNL111      0.0564
     30 H         117.4946  154.4515  144.2615 H       1  UNL111      0.0555
     31 H         119.1703  153.9064  144.2700 H       1  UNL111      0.0555
     32 H         118.8904  151.3330  143.9803 H       1  UNL111      0.0632
     33 H         118.6919  150.0517  145.1841 H       1  UNL111      0.0632
     34 H         118.9050  150.4690  147.8720 H       1  UNL111      0.0742
     35 H         117.5803  150.8694  148.9771 H       1  UNL111      0.0742
     36 H         118.0293  156.2107  145.9635 H       1  UNL111      0.0708
     37 H         119.0415  156.3480  144.5189 H       1  UNL111      0.0708
     38 H         121.4171  150.0415  144.5070 H       1  UNL111      0.0939
     39 H         123.5834  150.8693  145.3766 H       1  UNL111      0.1139
@<TRIPOS>UNITY_ATOM_ATTR
5 1
charge 1
@<TRIPOS>BOND
     1     1     9    1
     2     1    18    1
     3     2     7    1
     4     3    17    2
     5     4    20    1
     6     5     8    1
     7     5    14    1
     8     6     7    1
     9     6     9    1
    10     6    10    1
    11     6    11    1
    12     7     8    1
    13     7    12    1
    14     8    13    1
    15     9    17    1
    16    10    14    1
    17    11    15   ar
    18    11    18   ar
    19    12    16    1
    20    13    15    1
    21    15    19   ar
    22    16    17    1
    23    18    20   ar
    24    19    21   ar
    25    20    21   ar
    26     2    22    1
    27     4    23    1
    28     5    24    1
    29     5    25    1
    30     8    26    1
    31     9    27    1
    32    10    28    1
    33    10    29    1
    34    12    30    1
    35    12    31    1
    36    13    32    1
    37    13    33    1
    38    14    34    1
    39    14    35    1
    40    16    36    1
    41    16    37    1
    42    19    38    1
    43    21    39    1
@<TRIPOS>MOLECULE
56843406
 52 56 0 0 0
SMALL
GASTEIGER

@<TRIPOS>ATOM
      1 O         118.2615  153.8505  144.9719 O.2     1  UNL111     -0.5269
      2 O         122.6384  154.1415  145.9669 O.3     1  UNL111     -0.5043
      3 O         118.5055  156.2689  146.3465 O.2     1  UNL111     -0.4033
      4 O         115.7734  152.5296  145.7421 O.3     1  UNL111     -0.4569
      5 O         124.2545  153.7584  147.5226 O.2     1  UNL111     -0.3411
      6 O         115.5955  153.7378  147.7360 O.2     1  UNL111     -0.3381
      7 N         122.6367  151.2712  145.9349 N.4     1  UNL111      0.4316
      8 C         120.4617  153.1807  145.6794 C.3     1  UNL111      0.0978
      9 C         121.5890  153.4221  146.7038 C.3     1  UNL111      0.0984
     10 C         122.0358  151.9837  147.1776 C.3     1  UNL111      0.0161
     11 C         119.5871  154.3834  145.2751 C.3     1  UNL111      0.1464
     12 C         121.0068  152.4303  144.4346 C.3     1  UNL111     -0.0139
     13 C         119.3813  152.3558  146.2822 C.3     1  UNL111      0.0388
     14 C         121.1092  154.3344  147.8499 C.3     1  UNL111      0.0122
     15 C         120.8925  151.1426  147.8354 C.3     1  UNL111     -0.0111
     16 C         121.6829  151.1021  144.7789 C.3     1  UNL111     -0.0320
     17 C         119.5358  151.3559  147.2242 C.3     1  UNL111     -0.0376
     18 C         120.5937  155.6678  147.3164 C.3     1  UNL111      0.0399
     19 C         119.4507  155.4799  146.3445 C.2     1  UNL111      0.1320
     20 C         118.1548  152.7624  145.8010 C.3     1  UNL111      0.1198
     21 C         123.3707  149.9970  146.2625 C.3     1  UNL111     -0.0420
     22 C         118.3816  150.6786  147.6253 C.3     1  UNL111     -0.0555
     23 C         117.0116  152.1151  146.2063 C.3     1  UNL111      0.1326
     24 C         117.1237  151.0419  147.0996 C.3     1  UNL111     -0.0053
     25 C         123.8655  154.3368  146.5225 C.2     1  UNL111      0.2152
     26 C         124.6573  155.3347  145.7367 C.3     1  UNL111      0.0551
     27 C         115.1719  153.4111  146.6341 C.2     1  UNL111      0.2266
     28 C         113.9039  153.9357  146.0284 C.3     1  UNL111      0.0573
     29 H         123.3778  151.9054  145.6070 H       1  UNL111      0.1361
     30 H         122.8597  152.0308  147.8933 H       1  UNL111      0.1029
     31 H         119.9796  154.8710  144.3746 H       1  UNL111      0.1636
     32 H         121.7251  153.0700  143.9057 H       1  UNL111      0.0574
     33 H         120.2062  152.2275  143.7107 H       1  UNL111      0.0574
     34 H         121.9338  154.5381  148.5425 H       1  UNL111      0.0614
     35 H         120.3205  153.8556  148.4405 H       1  UNL111      0.0614
     36 H         120.8214  151.4520  148.8865 H       1  UNL111      0.0642
     37 H         121.1317  150.0753  147.8372 H       1  UNL111      0.0642
     38 H         120.9610  150.3250  145.0488 H       1  UNL111      0.0745
     39 H         122.2693  150.7446  143.9253 H       1  UNL111      0.0745
     40 H         121.3829  156.2336  146.8109 H       1  UNL111      0.0716
     41 H         120.2365  156.2737  148.1567 H       1  UNL111      0.0716
     42 H         122.6462  149.2180  146.5079 H       1  UNL111      0.0671
     43 H         124.0434  150.1942  147.1008 H       1  UNL111      0.0671
     44 H         123.9509  149.7126  145.3804 H       1  UNL111      0.0671
     45 H         118.4281  149.8877  148.3725 H       1  UNL111      0.0941
     46 H         116.2286  150.5224  147.4354 H       1  UNL111      0.1154
     47 H         124.4748  155.2030  144.6666 H       1  UNL111      0.0793
     48 H         125.7234  155.1712  145.9167 H       1  UNL111      0.0793
     49 H         124.3816  156.3454  146.0455 H       1  UNL111      0.0793
     50 H         113.3968  153.1465  145.4662 H       1  UNL111      0.0797
     51 H         114.1329  154.7788  145.3730 H       1  UNL111      0.0797
     52 H         113.2309  154.2602  146.8270 H       1  UNL111      0.0797
@<TRIPOS>UNITY_ATOM_ATTR
7 1
charge 1
@<TRIPOS>BOND
     1     1    11    1
     2     1    20    1
     3     2     9    1
     4     2    25    1
     5     3    19    2
     6     4    23    1
     7     4    27    1
     8     5    25    2
     9     6    27    2
    10     7    10    1
    11     7    16    1
    12     7    21    1
    13     8     9    1
    14     8    11    1
    15     8    12    1
    16     8    13    1
    17     9    10    1
    18     9    14    1
    19    10    15    1
    20    11    19    1
    21    12    16    1
    22    13    17   ar
    23    13    20   ar
    24    14    18    1
    25    15    17    1
    26    17    22   ar
    27    18    19    1
    28    20    23   ar
    29    22    24   ar
    30    23    24   ar
    31    25    26    1
    32    27    28    1
    33     7    29    1
    34    10    30    1
    35    11    31    1
    36    12    32    1
    37    12    33    1
    38    14    34    1
    39    14    35    1
    40    15    36    1
    41    15    37    1
    42    16    38    1
    43    16    39    1
    44    18    40    1
    45    18    41    1
    46    21    42    1
    47    21    43    1
    48    21    44    1
    49    22    45    1
    50    24    46    1
    51    26    47    1
    52    26    48    1
    53    26    49    1
    54    28    50    1
    55    28    51    1
    56    28    52    1
@<TRIPOS>MOLECULE
5490620
 58 62 0 0 0
SMALL
GASTEIGER

@<TRIPOS>ATOM
      1 CL        125.0398  150.1299  144.4700 Cl      1  UNL111     -0.1868
      2 CL        124.5456  156.1706  148.2498 Cl      1  UNL111     -0.1868
      3 O         120.3225  154.0408  144.9137 O.3     1  UNL111     -0.5446
      4 O         118.9356  150.1929  146.8911 O.3     1  UNL111     -0.4358
      5 O         119.8241  156.9323  144.9210 O.3     1  UNL111     -0.5485
      6 N         116.2367  151.2275  146.4067 N.4     1  UNL111      0.4300
      7 N         122.7687  152.9853  146.3476 N.4     1  UNL111      0.4350
      8 C         118.8798  152.4162  145.9842 C.3     1  UNL111      0.0703
      9 C         118.6409  151.5562  147.2348 C.3     1  UNL111      0.0463
     10 C         120.3431  152.7391  145.6075 C.3     1  UNL111      0.0761
     11 C         117.1154  151.7301  147.5902 C.3     1  UNL111      0.0010
     12 C         118.0678  151.8643  144.7857 C.3     1  UNL111     -0.0191
     13 C         118.4587  153.8200  146.2321 C.ar    1  UNL111      0.0314
     14 C         119.6035  151.9070  148.3890 C.3     1  UNL111     -0.0156
     15 C         121.3025  152.9076  146.8304 C.3     1  UNL111      0.0072
     16 C         121.0737  151.8652  147.9254 C.3     1  UNL111     -0.0320
     17 C         116.7263  153.2111  147.9211 C.3     1  UNL111     -0.0148
     18 C         116.5619  151.8232  145.0540 C.3     1  UNL111     -0.0336
     19 C         117.4455  154.2342  147.0780 C.ar    1  UNL111     -0.0395
     20 C         119.2718  154.6901  145.5282 C.ar    1  UNL111      0.1078
     21 C         116.0807  149.7241  146.3345 C.3     1  UNL111     -0.0427
     22 C         117.2219  155.6098  147.1543 C.ar    1  UNL111     -0.0569
     23 C         119.0476  156.0421  145.5854 C.ar    1  UNL111      0.0922
     24 C         123.3901  151.6255  145.9970 C.3     1  UNL111     -0.0175
     25 C         123.6730  153.7971  147.2972 C.3     1  UNL111     -0.0175
     26 C         118.0143  156.5066  146.4014 C.ar    1  UNL111     -0.0139
     27 C         124.5049  151.7495  144.9559 C.3     1  UNL111      0.0154
     28 C         123.4489  155.3053  147.1587 C.3     1  UNL111      0.0154
     29 H         118.9079  149.6302  147.6914 H       1  UNL111      0.2435
     30 H         120.2467  156.4771  144.1713 H       1  UNL111      0.3393
     31 H         115.2789  151.5471  146.6150 H       1  UNL111      0.1349
     32 H         122.7283  153.5247  145.4664 H       1  UNL111      0.1394
     33 H         120.7314  151.9935  144.9054 H       1  UNL111      0.1433
     34 H         116.8382  151.0907  148.4361 H       1  UNL111      0.0968
     35 H         118.4207  150.8570  144.5314 H       1  UNL111      0.0563
     36 H         118.2344  152.4680  143.8836 H       1  UNL111      0.0563
     37 H         119.4817  151.1833  149.2046 H       1  UNL111      0.0534
     38 H         119.3894  152.8951  148.8107 H       1  UNL111      0.0534
     39 H         121.1196  153.8904  147.2770 H       1  UNL111      0.0993
     40 H         121.3207  150.8572  147.5761 H       1  UNL111      0.0520
     41 H         121.7173  152.0685  148.7882 H       1  UNL111      0.0520
     42 H         116.9931  153.4036  148.9680 H       1  UNL111      0.0633
     43 H         115.6430  153.3517  147.8306 H       1  UNL111      0.0633
     44 H         116.1249  152.8272  145.0427 H       1  UNL111      0.0743
     45 H         116.0379  151.2380  144.2900 H       1  UNL111      0.0743
     46 H         116.9674  149.2836  145.8773 H       1  UNL111      0.0670
     47 H         115.2008  149.5160  145.7190 H       1  UNL111      0.0670
     48 H         115.9185  149.3443  147.3459 H       1  UNL111      0.0670
     49 H         116.4472  156.0180  147.8037 H       1  UNL111      0.0939
     50 H         122.5850  151.0029  145.5949 H       1  UNL111      0.0812
     51 H         123.7470  151.1808  146.9326 H       1  UNL111      0.0812
     52 H         124.7082  153.5575  147.0364 H       1  UNL111      0.0812
     53 H         123.4818  153.4392  148.3136 H       1  UNL111      0.0812
     54 H         117.8294  157.5783  146.4736 H       1  UNL111      0.1139
     55 H         124.1494  152.2666  144.0596 H       1  UNL111      0.0872
     56 H         125.3738  152.2844  145.3465 H       1  UNL111      0.0872
     57 H         123.6540  155.6391  146.1372 H       1  UNL111      0.0872
     58 H         122.4298  155.5978  147.4214 H       1  UNL111      0.0872
@<TRIPOS>UNITY_ATOM_ATTR
6 1
charge 1
7 1
charge 1
@<TRIPOS>BOND
     1     1    27    1
     2     2    28    1
     3     3    10    1
     4     3    20    1
     5     4     9    1
     6     5    23    1
     7     6    11    1
     8     6    18    1
     9     6    21    1
    10     7    15    1
    11     7    24    1
    12     7    25    1
    13     8     9    1
    14     8    10    1
    15     8    12    1
    16     8    13    1
    17     9    11    1
    18     9    14    1
    19    10    15    1
    20    11    17    1
    21    12    18    1
    22    13    19   ar
    23    13    20   ar
    24    14    16    1
    25    15    16    1
    26    17    19    1
    27    19    22   ar
    28    20    23   ar
    29    22    26   ar
    30    23    26   ar
    31    24    27    1
    32    25    28    1
    33     4    29    1
    34     5    30    1
    35     6    31    1
    36     7    32    1
    37    10    33    1
    38    11    34    1
    39    12    35    1
    40    12    36    1
    41    14    37    1
    42    14    38    1
    43    15    39    1
    44    16    40    1
    45    16    41    1
    46    17    42    1
    47    17    43    1
    48    18    44    1
    49    18    45    1
    50    21    46    1
    51    21    47    1
    52    21    48    1
    53    22    49    1
    54    24    50    1
    55    24    51    1
    56    25    52    1
    57    25    53    1
    58    26    54    1
    59    27    55    1
    60    27    56    1
    61    28    57    1
    62    28    58    1
@<TRIPOS>MOLECULE
5284603
 45 49 0 0 0
SMALL
GASTEIGER

@<TRIPOS>ATOM
      1 O         118.2821  154.0844  145.1214 O.2     1  UNL111     -0.5288
      2 O         122.7614  154.4416  146.0393 O.3     1  UNL111     -0.4354
      3 O         118.3898  156.3776  146.7163 O.2     1  UNL111     -0.4035
      4 O         115.9499  152.6144  145.7786 O.2     1  UNL111     -0.5683
      5 N         122.8250  151.7920  145.9098 N.4     1  UNL111      0.4301
      6 C         120.5285  153.5352  145.7566 C.3     1  UNL111      0.0838
      7 C         121.6718  153.8058  146.7514 C.3     1  UNL111      0.0494
      8 C         122.2050  152.4007  147.1950 C.3     1  UNL111      0.0013
      9 C         119.5732  154.6924  145.4140 C.3     1  UNL111      0.1428
     10 C         121.0643  152.8395  144.4795 C.3     1  UNL111     -0.0175
     11 C         119.5162  152.6409  146.3841 C.3     1  UNL111      0.0337
     12 C         121.2409  154.7078  147.9143 C.3     1  UNL111     -0.0022
     13 C         121.1458  151.4691  147.8514 C.3     1  UNL111     -0.0147
     14 C         121.8479  151.5615  144.7818 C.3     1  UNL111     -0.0334
     15 C         119.7577  151.6368  147.2994 C.3     1  UNL111     -0.0392
     16 C         120.6385  156.0082  147.3920 C.3     1  UNL111      0.0363
     17 C         119.4197  155.7279  146.5431 C.2     1  UNL111      0.1306
     18 C         118.2520  152.9698  145.9308 C.3     1  UNL111      0.1114
     19 C         123.7229  150.6163  146.1477 C.3     1  UNL111     -0.0427
     20 C         118.6536  150.8931  147.7125 C.3     1  UNL111     -0.0567
     21 C         117.1448  152.2367  146.3091 C.3     1  UNL111      0.0934
     22 C         117.3623  151.1808  147.2075 C.3     1  UNL111     -0.0129
     23 C         114.7881  151.9402  146.2437 C.3     1  UNL111      0.0331
     24 H         123.1842  155.1198  146.6046 H       1  UNL111      0.2436
     25 H         123.4340  152.5593  145.5701 H       1  UNL111      0.1349
     26 H         123.0595  152.5278  147.8711 H       1  UNL111      0.0968
     27 H         119.9102  155.2397  144.5257 H       1  UNL111      0.1627
     28 H         121.7126  153.5352  143.9308 H       1  UNL111      0.0565
     29 H         120.2503  152.5874  143.7869 H       1  UNL111      0.0565
     30 H         122.1076  154.9518  148.5405 H       1  UNL111      0.0555
     31 H         120.5120  154.2039  148.5591 H       1  UNL111      0.0555
     32 H         121.0991  151.7231  148.9183 H       1  UNL111      0.0633
     33 H         121.4463  150.4190  147.7848 H       1  UNL111      0.0633
     34 H         121.1988  150.7271  145.0652 H       1  UNL111      0.0743
     35 H         122.4302  151.2619  143.9035 H       1  UNL111      0.0743
     36 H         121.3537  156.5802  146.7922 H       1  UNL111      0.0708
     37 H         120.3385  156.6338  148.2400 H       1  UNL111      0.0708
     38 H         123.1138  149.7537  146.4262 H       1  UNL111      0.0670
     39 H         124.4257  150.8764  146.9430 H       1  UNL111      0.0670
     40 H         124.2690  150.4174  145.2217 H       1  UNL111      0.0670
     41 H         118.7624  150.0891  148.4392 H       1  UNL111      0.0940
     42 H         116.5366  150.5662  147.5576 H       1  UNL111      0.1142
     43 H         113.9200  152.3910  145.7532 H       1  UNL111      0.1074
     44 H         114.6640  152.0655  147.3245 H       1  UNL111      0.1074
     45 H         114.8134  150.8804  145.9697 H       1  UNL111      0.1074
@<TRIPOS>UNITY_ATOM_ATTR
5 1
charge 1
@<TRIPOS>BOND
     1     1     9    1
     2     1    18    1
     3     2     7    1
     4     3    17    2
     5     4    21    1
     6     4    23    1
     7     5     8    1
     8     5    14    1
     9     5    19    1
    10     6     7    1
    11     6     9    1
    12     6    10    1
    13     6    11    1
    14     7     8    1
    15     7    12    1
    16     8    13    1
    17     9    17    1
    18    10    14    1
    19    11    15   ar
    20    11    18   ar
    21    12    16    1
    22    13    15    1
    23    15    20   ar
    24    16    17    1
    25    18    21   ar
    26    20    22   ar
    27    21    22   ar
    28     2    24    1
    29     5    25    1
    30     8    26    1
    31     9    27    1
    32    10    28    1
    33    10    29    1
    34    12    30    1
    35    12    31    1
    36    13    32    1
    37    13    33    1
    38    14    34    1
    39    14    35    1
    40    16    36    1
    41    16    37    1
    42    19    38    1
    43    19    39    1
    44    19    40    1
    45    20    41    1
    46    22    42    1
    47    23    43    1
    48    23    44    1
    49    23    45    1
@<TRIPOS>MOLECULE
9576841
 55 60 0 0 0
SMALL
GASTEIGER

@<TRIPOS>ATOM
      1 O         119.4093  153.6294  147.7169 O.3     1  UNL111     -0.5367
      2 O         122.8490  150.7631  146.6464 O.3     1  UNL111     -0.4357
      3 O         118.4081  156.3137  147.0642 O.3     1  UNL111     -0.5485
      4 N         124.4471  152.8603  146.8950 N.4     1  UNL111      0.4301
      5 N         118.0988  151.6002  146.0215 N.2     1  UNL111     -0.2663
      6 N         117.2898  152.2683  146.8676 N.pl3   1  UNL111     -0.3230
      7 C         121.5610  152.7815  147.0448 C.3     1  UNL111      0.0773
      8 C         122.3331  151.9537  146.0010 C.3     1  UNL111      0.0473
      9 C         123.5885  152.8033  145.6047 C.3     1  UNL111      0.0010
     10 C         120.1027  152.3845  147.3699 C.3     1  UNL111      0.1164
     11 C         122.4047  152.9626  148.3326 C.3     1  UNL111     -0.0186
     12 C         121.2665  154.1310  146.4883 C.ar    1  UNL111      0.0320
     13 C         121.4587  151.5480  144.8100 C.3     1  UNL111     -0.0088
     14 C         123.2786  154.2126  145.0264 C.3     1  UNL111     -0.0148
     15 C         123.7899  153.5544  148.0625 C.3     1  UNL111     -0.0335
     16 C         122.0543  154.8575  145.6138 C.ar    1  UNL111     -0.0394
     17 C         120.2235  150.7964  145.2873 C.3     1  UNL111      0.0094
     18 C         119.3821  151.6497  146.2170 C.2     1  UNL111      0.0481
     19 C         120.0475  154.5752  146.9538 C.ar    1  UNL111      0.1084
     20 C         125.8636  153.2994  146.6804 C.3     1  UNL111     -0.0427
     21 C         121.5998  156.1304  145.2632 C.ar    1  UNL111     -0.0569
     22 C         119.5966  155.8299  146.6233 C.ar    1  UNL111      0.0922
     23 C         120.3823  156.6194  145.7826 C.ar    1  UNL111     -0.0139
     24 C         115.9101  152.3482  146.6151 C.ar    1  UNL111      0.0114
     25 C         115.0874  153.0561  147.5032 C.ar    1  UNL111     -0.0499
     26 C         115.3096  151.7188  145.5174 C.ar    1  UNL111     -0.0499
     27 C         113.7093  153.1512  147.2873 C.ar    1  UNL111     -0.0778
     28 C         113.9324  151.8121  145.2976 C.ar    1  UNL111     -0.0778
     29 C         113.1328  152.5310  146.1820 C.ar    1  UNL111     -0.0842
     30 H         122.7641  149.9934  146.0475 H       1  UNL111      0.2436
     31 H         117.9383  155.5841  147.5060 H       1  UNL111      0.3393
     32 H         124.4906  151.8632  147.1763 H       1  UNL111      0.1349
     33 H         117.6454  152.8451  147.6263 H       1  UNL111      0.2469
     34 H         124.2064  152.2380  144.8961 H       1  UNL111      0.0968
     35 H         120.0589  151.7192  148.2409 H       1  UNL111      0.1518
     36 H         122.5225  151.9907  148.8294 H       1  UNL111      0.0564
     37 H         121.8928  153.6056  149.0608 H       1  UNL111      0.0564
     38 H         122.0255  150.8940  144.1362 H       1  UNL111      0.0540
     39 H         121.1494  152.4207  144.2242 H       1  UNL111      0.0540
     40 H         123.0934  154.0944  143.9509 H       1  UNL111      0.0633
     41 H         124.1370  154.8829  145.1320 H       1  UNL111      0.0633
     42 H         123.7527  154.6251  147.8391 H       1  UNL111      0.0743
     43 H         124.4368  153.4072  148.9344 H       1  UNL111      0.0743
     44 H         120.4934  149.8806  145.8246 H       1  UNL111      0.0602
     45 H         119.6216  150.4992  144.4207 H       1  UNL111      0.0602
     46 H         125.8757  154.3695  146.4627 H       1  UNL111      0.0670
     47 H         126.2798  152.7232  145.8504 H       1  UNL111      0.0670
     48 H         126.4234  153.0878  147.5953 H       1  UNL111      0.0670
     49 H         122.1617  156.7562  144.5717 H       1  UNL111      0.0939
     50 H         120.0313  157.6103  145.5000 H       1  UNL111      0.1139
     51 H         115.5106  153.5417  148.3776 H       1  UNL111      0.1005
     52 H         115.9171  151.1511  144.8177 H       1  UNL111      0.1005
     53 H         113.0861  153.7070  147.9831 H       1  UNL111      0.0891
     54 H         113.4874  151.3215  144.4361 H       1  UNL111      0.0891
     55 H         112.0617  152.6038  146.0119 H       1  UNL111      0.0877
@<TRIPOS>UNITY_ATOM_ATTR
4 1
charge 1
@<TRIPOS>BOND
     1     1    10    1
     2     1    19    1
     3     2     8    1
     4     3    22    1
     5     4     9    1
     6     4    15    1
     7     4    20    1
     8     5     6    1
     9     5    18    2
    10     6    24    1
    11     7     8    1
    12     7    10    1
    13     7    11    1
    14     7    12    1
    15     8     9    1
    16     8    13    1
    17     9    14    1
    18    10    18    1
    19    11    15    1
    20    12    16   ar
    21    12    19   ar
    22    13    17    1
    23    14    16    1
    24    16    21   ar
    25    17    18    1
    26    19    22   ar
    27    21    23   ar
    28    22    23   ar
    29    24    25   ar
    30    24    26   ar
    31    25    27   ar
    32    26    28   ar
    33    27    29   ar
    34    28    29   ar
    35     2    30    1
    36     3    31    1
    37     4    32    1
    38     6    33    1
    39     9    34    1
    40    10    35    1
    41    11    36    1
    42    11    37    1
    43    13    38    1
    44    13    39    1
    45    14    40    1
    46    14    41    1
    47    15    42    1
    48    15    43    1
    49    17    44    1
    50    17    45    1
    51    20    46    1
    52    20    47    1
    53    20    48    1
    54    21    49    1
    55    23    50    1
    56    25    51    1
    57    26    52    1
    58    27    53    1
    59    28    54    1
    60    29    55    1
