@<TRIPOS>MOLECULE
441278
 49 51 0 0 0
SMALL
GASTEIGER

@<TRIPOS>ATOM
      1 O         115.4199  150.7139  145.5288 O.3     1  UNL111     -0.5646
      2 N         121.4370  153.9454  146.6381 N.4     1  UNL111      0.4293
      3 C         118.7517  154.4031  145.5454 C.3     1  UNL111     -0.0137
      4 C         119.3905  155.3539  146.6011 C.3     1  UNL111     -0.0368
      5 C         120.3127  154.5271  147.5079 C.3     1  UNL111     -0.0274
      6 C         119.9010  153.8178  144.6829 C.3     1  UNL111     -0.0422
      7 C         119.5310  153.4559  148.2857 C.3     1  UNL111     -0.0255
      8 C         118.0355  153.2211  146.2184 C.ar    1  UNL111     -0.0496
      9 C         120.9583  153.0787  145.4967 C.3     1  UNL111     -0.0375
     10 C         118.4481  152.7640  147.4922 C.ar    1  UNL111     -0.0622
     11 C         117.8230  155.2183  144.6169 C.3     1  UNL111     -0.0525
     12 C         118.3749  156.1661  147.4204 C.3     1  UNL111     -0.0576
     13 C         122.5311  153.2801  147.4441 C.3     1  UNL111     -0.0242
     14 C         117.0136  152.5148  145.5542 C.ar    1  UNL111     -0.0250
     15 C         117.8185  151.6524  148.0778 C.ar    1  UNL111     -0.0634
     16 C         116.4104  151.4110  146.1520 C.ar    1  UNL111      0.0342
     17 C         116.8051  150.9765  147.4062 C.ar    1  UNL111     -0.0309
     18 C         123.8259  153.2212  146.6962 C.2     1  UNL111     -0.1036
     19 C         124.4190  152.1414  146.1477 C.2     1  UNL111     -0.1100
     20 C         125.7596  152.2646  145.4639 C.3     1  UNL111     -0.0504
     21 C         123.8653  150.7409  146.1467 C.3     1  UNL111     -0.0504
     22 H         115.1617  151.1697  144.7108 H       1  UNL111      0.3342
     23 H         121.8949  154.7541  146.2006 H       1  UNL111      0.1361
     24 H         120.0094  156.0955  146.0742 H       1  UNL111      0.0569
     25 H         120.8232  155.1899  148.2176 H       1  UNL111      0.0834
     26 H         120.3918  154.6325  144.1325 H       1  UNL111      0.0505
     27 H         119.5054  153.1327  143.9216 H       1  UNL111      0.0505
     28 H         119.0398  153.9446  149.1378 H       1  UNL111      0.0609
     29 H         120.2092  152.7090  148.7110 H       1  UNL111      0.0609
     30 H         120.5964  152.1328  145.9105 H       1  UNL111      0.0740
     31 H         121.8202  152.8658  144.8565 H       1  UNL111      0.0740
     32 H         118.3175  156.1346  144.2737 H       1  UNL111      0.0316
     33 H         116.8935  155.5047  145.1214 H       1  UNL111      0.0316
     34 H         117.5474  154.6576  143.7167 H       1  UNL111      0.0316
     35 H         117.6102  155.5391  147.8879 H       1  UNL111      0.0307
     36 H         117.8625  156.8999  146.7899 H       1  UNL111      0.0307
     37 H         118.8825  156.7255  148.2138 H       1  UNL111      0.0307
     38 H         122.1675  152.2991  147.7589 H       1  UNL111      0.0839
     39 H         122.6828  153.8845  148.3457 H       1  UNL111      0.0839
     40 H         116.6860  152.8115  144.5624 H       1  UNL111      0.1125
     41 H         118.1091  151.3033  149.0674 H       1  UNL111      0.0932
     42 H         116.3201  150.1162  147.8610 H       1  UNL111      0.1103
     43 H         124.3577  154.1720  146.6411 H       1  UNL111      0.0895
     44 H         126.1417  153.2907  145.4796 H       1  UNL111      0.0370
     45 H         125.6798  151.9559  144.4163 H       1  UNL111      0.0370
     46 H         126.4979  151.6266  145.9607 H       1  UNL111      0.0370
     47 H         122.8676  150.6696  146.5851 H       1  UNL111      0.0370
     48 H         124.5257  150.0749  146.7117 H       1  UNL111      0.0370
     49 H         123.7925  150.3665  145.1201 H       1  UNL111      0.0370
@<TRIPOS>UNITY_ATOM_ATTR
2 1
charge 1
@<TRIPOS>BOND
     1     1    16    1
     2     2     5    1
     3     2     9    1
     4     2    13    1
     5     3     4    1
     6     3     6    1
     7     3     8    1
     8     3    11    1
     9     4     5    1
    10     4    12    1
    11     5     7    1
    12     6     9    1
    13     7    10    1
    14     8    10   ar
    15     8    14   ar
    16    10    15   ar
    17    13    18    1
    18    14    16   ar
    19    15    17   ar
    20    16    17   ar
    21    18    19    2
    22    19    20    1
    23    19    21    1
    24     1    22    1
    25     2    23    1
    26     4    24    1
    27     5    25    1
    28     6    26    1
    29     6    27    1
    30     7    28    1
    31     7    29    1
    32     9    30    1
    33     9    31    1
    34    11    32    1
    35    11    33    1
    36    11    34    1
    37    12    35    1
    38    12    36    1
    39    12    37    1
    40    13    38    1
    41    13    39    1
    42    14    40    1
    43    15    41    1
    44    17    42    1
    45    18    43    1
    46    20    44    1
    47    20    45    1
    48    20    46    1
    49    21    47    1
    50    21    48    1
    51    21    49    1
@<TRIPOS>MOLECULE
18991210
 11 11 0 0 0
SMALL
GASTEIGER

@<TRIPOS>ATOM
      1 N         118.3562  153.4890  146.8929 N.2     1  UNL1111    -0.1814
      2 N         121.3139  152.5134  146.8346 N.2     1  UNL1111    -0.1814
      3 N         118.4718  152.5523  145.8577 N.2     1  UNL1111    -0.0615
      4 N         120.2973  151.7838  146.9675 N.2     1  UNL1111    -0.0615
      5 N         119.4306  151.7413  145.8675 N.2     1  UNL1111    -0.0256
      6 C         120.3974  154.5705  145.9540 C.2     1  UNL1111    -0.0068
      7 C         119.2269  154.4475  146.8521 C.2     1  UNL1111     0.0482
      8 C         121.3199  153.5970  145.9883 C.2     1  UNL1111     0.0482
      9 H         120.4782  155.4462  145.3268 H       1  UNL1111     0.1126
     10 H         119.1203  155.2716  147.5770 H       1  UNL1111     0.1548
     11 H         122.2025  153.6760  145.3607 H       1  UNL1111     0.1548
@<TRIPOS>BOND
     1     1     3    1
     2     1     7    2
     3     2     4    2
     4     2     8    1
     5     3     5    2
     6     4     5    1
     7     6     7    1
     8     6     8    2
     9     6     9    1
    10     7    10    1
    11     8    11    1
@<TRIPOS>MOLECULE
4736
 49 51 0 0 0
SMALL
GASTEIGER

@<TRIPOS>ATOM
      1 O         114.7243  151.8478  145.3491 O.3     1  UNL111     -0.5646
      2 N         121.4436  153.0599  146.4707 N.4     1  UNL111      0.4293
      3 C         118.9638  154.4201  145.6988 C.3     1  UNL111     -0.0137
      4 C         119.8782  154.9502  146.8431 C.3     1  UNL111     -0.0368
      5 C         120.5612  153.7519  147.5166 C.3     1  UNL111     -0.0274
      6 C         119.8733  153.7159  144.6565 C.3     1  UNL111     -0.0422
      7 C         119.5395  152.8034  148.1636 C.3     1  UNL111     -0.0255
      8 C         117.9668  153.3734  146.2218 C.ar    1  UNL111     -0.0496
      9 C         120.7062  152.5817  145.2438 C.3     1  UNL111     -0.0375
     10 C         118.2769  152.5940  147.3614 C.ar    1  UNL111     -0.0622
     11 C         118.2718  155.6133  145.0014 C.3     1  UNL111     -0.0525
     12 C         119.1595  155.8393  147.8701 C.3     1  UNL111     -0.0576
     13 C         122.3436  151.9963  147.0551 C.3     1  UNL111     -0.0242
     14 C         116.7639  153.1079  145.5385 C.ar    1  UNL111     -0.0250
     15 C         117.3783  151.6085  147.8047 C.ar    1  UNL111     -0.0634
     16 C         115.8932  152.1203  145.9930 C.ar    1  UNL111      0.0342
     17 C         116.1917  151.3712  147.1187 C.ar    1  UNL111     -0.0309
     18 C         123.5562  151.7711  146.2094 C.2     1  UNL111     -0.1036
     19 C         124.6844  152.5091  146.1860 C.2     1  UNL111     -0.1100
     20 C         125.8375  152.1241  145.2913 C.3     1  UNL111     -0.0504
     21 C         124.9368  153.7394  147.0158 C.3     1  UNL111     -0.0504
     22 H         114.5777  152.4992  144.6437 H       1  UNL111      0.3342
     23 H         122.0987  153.7805  146.1406 H       1  UNL111      0.1361
     24 H         120.6626  155.5816  146.3993 H       1  UNL111      0.0569
     25 H         121.2612  154.1090  148.2823 H       1  UNL111      0.0834
     26 H         120.5548  154.4547  144.2124 H       1  UNL111      0.0505
     27 H         119.2758  153.3164  143.8266 H       1  UNL111      0.0505
     28 H         119.2384  153.2334  149.1284 H       1  UNL111      0.0609
     29 H         119.9972  151.8339  148.3877 H       1  UNL111      0.0609
     30 H         120.1055  151.7102  145.5211 H       1  UNL111      0.0740
     31 H         121.4547  152.2606  144.5117 H       1  UNL111      0.0740
     32 H         118.9925  156.4084  144.7769 H       1  UNL111      0.0316
     33 H         117.4779  156.0426  145.6227 H       1  UNL111      0.0316
     34 H         117.8195  155.3244  144.0461 H       1  UNL111      0.0316
     35 H         118.2671  155.3656  148.2891 H       1  UNL111      0.0307
     36 H         118.8509  156.7872  147.4176 H       1  UNL111      0.0307
     37 H         119.8308  156.0851  148.7003 H       1  UNL111      0.0307
     38 H         121.7625  151.0725  147.1488 H       1  UNL111      0.0839
     39 H         122.6314  152.3135  148.0632 H       1  UNL111      0.0839
     40 H         116.4993  153.6605  144.6421 H       1  UNL111      0.1125
     41 H         117.5922  151.0171  148.6936 H       1  UNL111      0.0932
     42 H         115.4984  150.6079  147.4633 H       1  UNL111      0.1103
     43 H         123.5077  150.8840  145.5761 H       1  UNL111      0.0895
     44 H         125.6258  151.2233  144.7057 H       1  UNL111      0.0370
     45 H         126.7330  151.9291  145.8903 H       1  UNL111      0.0370
     46 H         126.0572  152.9339  144.5879 H       1  UNL111      0.0370
     47 H         124.0843  154.0152  147.6418 H       1  UNL111      0.0370
     48 H         125.1538  154.5934  146.3656 H       1  UNL111      0.0370
     49 H         125.7952  153.5795  147.6763 H       1  UNL111      0.0370
@<TRIPOS>UNITY_ATOM_ATTR
2 1
charge 1
@<TRIPOS>BOND
     1     1    16    1
     2     2     5    1
     3     2     9    1
     4     2    13    1
     5     3     4    1
     6     3     6    1
     7     3     8    1
     8     3    11    1
     9     4     5    1
    10     4    12    1
    11     5     7    1
    12     6     9    1
    13     7    10    1
    14     8    10   ar
    15     8    14   ar
    16    10    15   ar
    17    13    18    1
    18    14    16   ar
    19    15    17   ar
    20    16    17   ar
    21    18    19    2
    22    19    20    1
    23    19    21    1
    24     1    22    1
    25     2    23    1
    26     4    24    1
    27     5    25    1
    28     6    26    1
    29     6    27    1
    30     7    28    1
    31     7    29    1
    32     9    30    1
    33     9    31    1
    34    11    32    1
    35    11    33    1
    36    11    34    1
    37    12    35    1
    38    12    36    1
    39    12    37    1
    40    13    38    1
    41    13    39    1
    42    14    40    1
    43    15    41    1
    44    17    42    1
    45    18    43    1
    46    20    44    1
    47    20    45    1
    48    20    46    1
    49    21    47    1
    50    21    48    1
    51    21    49    1
@<TRIPOS>MOLECULE
12259685
 49 51 0 0 0
SMALL
GASTEIGER

@<TRIPOS>ATOM
      1 O         124.2832  155.4827  147.4057 O.3     1  UNL111     -0.5646
      2 N         118.2904  152.2132  146.1508 N.4     1  UNL111      0.4293
      3 C         121.0106  151.7503  147.1468 C.3     1  UNL111     -0.0137
      4 C         120.3780  150.8775  146.0220 C.3     1  UNL111     -0.0368
      5 C         119.4134  151.7528  145.2097 C.3     1  UNL111     -0.0274
      6 C         119.8643  152.2348  148.0752 C.3     1  UNL111     -0.0422
      7 C         120.1450  152.9168  144.5207 C.3     1  UNL111     -0.0255
      8 C         121.6880  153.0008  146.5652 C.ar    1  UNL111     -0.0496
      9 C         118.7685  153.0061  147.3447 C.3     1  UNL111     -0.0375
     10 C         121.2345  153.5593  145.3470 C.ar    1  UNL111     -0.0622
     11 C         121.9730  150.8803  147.9874 C.3     1  UNL111     -0.0525
     12 C         121.3986  150.1729  145.1140 C.3     1  UNL111     -0.0576
     13 C         117.1444  152.8879  145.4279 C.3     1  UNL111     -0.0242
     14 C         122.7163  153.6642  147.2630 C.ar    1  UNL111     -0.0250
     15 C         121.8291  154.7305  144.8472 C.ar    1  UNL111     -0.0634
     16 C         123.2858  154.8268  146.7498 C.ar    1  UNL111      0.0342
     17 C         122.8495  155.3632  145.5500 C.ar    1  UNL111     -0.0309
     18 C         115.8827  152.8691  146.2330 C.2     1  UNL111     -0.1036
     19 C         115.1915  153.9183  146.7231 C.2     1  UNL111     -0.1100
     20 C         113.9167  153.7008  147.5035 C.3     1  UNL111     -0.0504
     21 C         115.5573  155.3700  146.5595 C.3     1  UNL111     -0.0504
     22 H         124.5716  154.9604  148.1721 H       1  UNL111      0.3342
     23 H         117.8814  151.3524  146.5333 H       1  UNL111      0.1361
     24 H         119.7922  150.0734  146.4921 H       1  UNL111      0.0569
     25 H         118.9095  151.1411  144.4511 H       1  UNL111      0.0834
     26 H         120.2587  152.8678  148.8809 H       1  UNL111      0.0505
     27 H         119.4072  151.3655  148.5681 H       1  UNL111      0.0505
     28 H         119.4366  153.6827  144.1888 H       1  UNL111      0.0609
     29 H         120.6230  152.5262  143.6122 H       1  UNL111      0.0609
     30 H         117.9151  153.1445  148.0164 H       1  UNL111      0.0740
     31 H         119.0938  153.9911  146.9971 H       1  UNL111      0.0740
     32 H         121.5047  149.9268  148.2582 H       1  UNL111      0.0316
     33 H         122.2520  151.3684  148.9280 H       1  UNL111      0.0316
     34 H         122.8996  150.6594  147.4458 H       1  UNL111      0.0316
     35 H         122.1324  150.8624  144.6869 H       1  UNL111      0.0307
     36 H         120.8896  149.6685  144.2853 H       1  UNL111      0.0307
     37 H         121.9477  149.4040  145.6669 H       1  UNL111      0.0307
     38 H         116.9711  152.3242  144.5044 H       1  UNL111      0.0839
     39 H         117.4735  153.8920  145.1551 H       1  UNL111      0.0839
     40 H         123.0759  153.2870  148.2155 H       1  UNL111      0.1125
     41 H         121.5063  155.1602  143.9002 H       1  UNL111      0.0932
     42 H         123.3081  156.2690  145.1611 H       1  UNL111      0.1103
     43 H         115.4705  151.8738  146.4038 H       1  UNL111      0.0895
     44 H         113.6828  152.6386  147.6306 H       1  UNL111      0.0370
     45 H         113.0721  154.1695  146.9879 H       1  UNL111      0.0370
     46 H         114.0047  154.1418  148.5019 H       1  UNL111      0.0370
     47 H         116.4830  155.5260  146.0025 H       1  UNL111      0.0370
     48 H         115.6850  155.8388  147.5407 H       1  UNL111      0.0370
     49 H         114.7604  155.8987  146.0254 H       1  UNL111      0.0370
@<TRIPOS>UNITY_ATOM_ATTR
2 1
charge 1
@<TRIPOS>BOND
     1     1    16    1
     2     2     5    1
     3     2     9    1
     4     2    13    1
     5     3     4    1
     6     3     6    1
     7     3     8    1
     8     3    11    1
     9     4     5    1
    10     4    12    1
    11     5     7    1
    12     6     9    1
    13     7    10    1
    14     8    10   ar
    15     8    14   ar
    16    10    15   ar
    17    13    18    1
    18    14    16   ar
    19    15    17   ar
    20    16    17   ar
    21    18    19    2
    22    19    20    1
    23    19    21    1
    24     1    22    1
    25     2    23    1
    26     4    24    1
    27     5    25    1
    28     6    26    1
    29     6    27    1
    30     7    28    1
    31     7    29    1
    32     9    30    1
    33     9    31    1
    34    11    32    1
    35    11    33    1
    36    11    34    1
    37    12    35    1
    38    12    36    1
    39    12    37    1
    40    13    38    1
    41    13    39    1
    42    14    40    1
    43    15    41    1
    44    17    42    1
    45    18    43    1
    46    20    44    1
    47    20    45    1
    48    20    46    1
    49    21    47    1
    50    21    48    1
    51    21    49    1
@<TRIPOS>MOLECULE
71717297
 24 26 0 0 0
SMALL
GASTEIGER

@<TRIPOS>ATOM
      1 O         124.3618  150.7262  145.6621 O.co2   1  UNL111     -0.8098
      2 N         118.2430  154.3845  146.1343 N.4     1  UNL111      0.4546
      3 C         121.4159  154.6715  145.7255 C.3     1  UNL111      0.0391
      4 C         120.4430  155.4262  146.7985 C.3     1  UNL111      0.0314
      5 C         119.3122  154.4889  147.1606 C.3     1  UNL111      0.0457
      6 C         120.4490  154.3874  144.6245 C.3     1  UNL111      0.0544
      7 C         119.9248  153.2810  147.5879 C.3     1  UNL111      0.0593
      8 C         121.9161  153.3165  146.2904 C.2     1  UNL111     -0.0483
      9 C         118.9610  154.2327  144.8552 C.3     1  UNL111      0.0550
     10 C         121.1305  152.6239  147.2467 C.2     1  UNL111     -0.0266
     11 C         122.5424  155.6387  145.2910 C.3     1  UNL111      0.0176
     12 C         120.0343  156.9159  146.8081 C.3     1  UNL111      0.0212
     13 C         117.2726  153.3132  146.3635 C.3     1  UNL111      0.0775
     14 C         123.0253  152.6398  145.7730 C.2     1  UNL111     -0.0917
     15 C         121.4454  151.3631  147.7071 C.2     1  UNL111     -0.0364
     16 C         123.3765  151.3372  146.1773 C.2     1  UNL111     -0.1314
     17 C         122.5676  150.7444  147.1704 C.2     1  UNL111     -0.0858
     18 C         116.2560  152.1933  146.5988 C.2     1  UNL111     -0.0045
     19 C         115.3673  151.2677  146.7929 C.2     1  UNL111     -0.0353
     20 C         114.8402  150.5483  145.5928 C.3     1  UNL111      0.0355
     21 C         114.5283  151.3724  148.0280 C.3     1  UNL111      0.0355
     22 H         117.7355  155.2864  146.1022 H       1  UNL111      0.1702
     23 H         123.6462  153.1015  145.0007 H       1  UNL111      0.0853
     24 H         122.8265  149.7421  147.5140 H       1  UNL111      0.0875
@<TRIPOS>UNITY_ATOM_ATTR
1 1
charge -1
2 1
charge 1
@<TRIPOS>BOND
     1     1    16    1
     2     2     5    1
     3     2     9    1
     4     2    13    1
     5     3     4    1
     6     3     6    1
     7     3     8    1
     8     3    11    1
     9     4     5    1
    10     4    12    1
    11     5     7    1
    12     6     9    1
    13     7    10    1
    14     8    10    2
    15     8    14    1
    16    10    15    1
    17    13    18    1
    18    14    16    2
    19    15    17    2
    20    16    17    1
    21    18    19    2
    22    19    20    1
    23    19    21    1
    24     2    22    1
    25    14    23    1
    26    17    24    1
@<TRIPOS>MOLECULE
90672058
 52 54 0 0 0
SMALL
GASTEIGER

@<TRIPOS>ATOM
      1 O         124.2911  151.0751  146.1047 O.3     1  UNL111     -0.4523
      2 O         114.7516  151.1565  145.3573 O.3     1  UNL111     -0.5646
      3 N         121.1034  153.8456  146.3405 N.4     1  UNL111      0.4279
      4 C         118.3063  154.5984  145.8435 C.3     1  UNL111     -0.0138
      5 C         119.1334  155.1980  147.0190 C.3     1  UNL111     -0.0370
      6 C         120.1352  154.1400  147.4999 C.3     1  UNL111     -0.0285
      7 C         119.2893  154.2658  144.6885 C.3     1  UNL111     -0.0424
      8 C         119.4334  152.8789  148.0308 C.3     1  UNL111     -0.0257
      9 C         120.4180  153.3242  145.0954 C.3     1  UNL111     -0.0386
     10 C         117.6228  153.2876  146.2620 C.ar    1  UNL111     -0.0496
     11 C         118.1918  152.4746  147.2703 C.ar    1  UNL111     -0.0622
     12 C         117.3081  155.6604  145.3281 C.3     1  UNL111     -0.0525
     13 C         118.2886  155.7388  148.1834 C.3     1  UNL111     -0.0576
     14 C         122.2822  152.9700  146.7615 C.3     1  UNL111     -0.0343
     15 C         116.4617  152.8287  145.6096 C.ar    1  UNL111     -0.0250
     16 C         123.5271  153.3297  145.9474 C.3     1  UNL111     -0.0309
     17 C         117.5795  151.2590  147.6212 C.ar    1  UNL111     -0.0634
     18 C         124.7303  152.4223  146.2678 C.3     1  UNL111      0.0048
     19 C         115.8767  151.6175  145.9716 C.ar    1  UNL111      0.0342
     20 C         116.4260  150.8325  146.9711 C.ar    1  UNL111     -0.0309
     21 C         125.2284  152.5962  147.7036 C.3     1  UNL111     -0.0407
     22 C         125.8677  152.6922  145.2792 C.3     1  UNL111     -0.0407
     23 H         125.0661  150.4870  146.1975 H       1  UNL111      0.2370
     24 H         114.4163  151.8267  144.7397 H       1  UNL111      0.3342
     25 H         121.5074  154.7563  146.0868 H       1  UNL111      0.1341
     26 H         119.7043  156.0588  146.6398 H       1  UNL111      0.0568
     27 H         120.7686  154.5642  148.2890 H       1  UNL111      0.0831
     28 H         119.7339  155.1977  144.3123 H       1  UNL111      0.0505
     29 H         118.7531  153.8208  143.8399 H       1  UNL111      0.0505
     30 H         119.1242  153.0747  149.0663 H       1  UNL111      0.0609
     31 H         120.1289  152.0334  148.0697 H       1  UNL111      0.0609
     32 H         120.0742  152.3043  145.2917 H       1  UNL111      0.0737
     33 H         121.1664  153.2841  144.2984 H       1  UNL111      0.0737
     34 H         117.8044  156.6272  145.1829 H       1  UNL111      0.0316
     35 H         116.4760  155.8094  146.0251 H       1  UNL111      0.0316
     36 H         116.8781  155.3827  144.3592 H       1  UNL111      0.0316
     37 H         117.5880  154.9978  148.5786 H       1  UNL111      0.0307
     38 H         117.7085  156.6135  147.8731 H       1  UNL111      0.0307
     39 H         118.9357  156.0605  149.0069 H       1  UNL111      0.0307
     40 H         121.9757  151.9270  146.6361 H       1  UNL111      0.0750
     41 H         122.4600  153.1675  147.8228 H       1  UNL111      0.0750
     42 H         116.0072  153.4059  144.8104 H       1  UNL111      0.1125
     43 H         123.7947  154.3806  146.1151 H       1  UNL111      0.0587
     44 H         123.2914  153.2282  144.8813 H       1  UNL111      0.0587
     45 H         117.9941  150.6330  148.4097 H       1  UNL111      0.0932
     46 H         115.9540  149.8922  147.2454 H       1  UNL111      0.1103
     47 H         124.4787  152.2695  148.4317 H       1  UNL111      0.0397
     48 H         125.4940  153.6372  147.9140 H       1  UNL111      0.0397
     49 H         126.1120  151.9730  147.8849 H       1  UNL111      0.0397
     50 H         125.5403  152.5144  144.2485 H       1  UNL111      0.0397
     51 H         126.7099  152.0133  145.4552 H       1  UNL111      0.0397
     52 H         126.2313  153.7221  145.3562 H       1  UNL111      0.0397
@<TRIPOS>UNITY_ATOM_ATTR
3 1
charge 1
@<TRIPOS>BOND
     1     1    18    1
     2     2    19    1
     3     3     6    1
     4     3     9    1
     5     3    14    1
     6     4     5    1
     7     4     7    1
     8     4    10    1
     9     4    12    1
    10     5     6    1
    11     5    13    1
    12     6     8    1
    13     7     9    1
    14     8    11    1
    15    10    11   ar
    16    10    15   ar
    17    11    17   ar
    18    14    16    1
    19    15    19   ar
    20    16    18    1
    21    17    20   ar
    22    18    21    1
    23    18    22    1
    24    19    20   ar
    25     1    23    1
    26     2    24    1
    27     3    25    1
    28     5    26    1
    29     6    27    1
    30     7    28    1
    31     7    29    1
    32     8    30    1
    33     8    31    1
    34     9    32    1
    35     9    33    1
    36    12    34    1
    37    12    35    1
    38    12    36    1
    39    13    37    1
    40    13    38    1
    41    13    39    1
    42    14    40    1
    43    14    41    1
    44    15    42    1
    45    16    43    1
    46    16    44    1
    47    17    45    1
    48    20    46    1
    49    21    47    1
    50    21    48    1
    51    21    49    1
    52    22    50    1
    53    22    51    1
    54    22    52    1
@<TRIPOS>MOLECULE
9669
 49 51 0 0 0
SMALL
GASTEIGER

@<TRIPOS>ATOM
      1 O         114.7206  154.4805  146.9601 O.3     1  UNL111     -0.5646
      2 N         121.2687  152.2433  147.2377 N.4     1  UNL111      0.4293
      3 C         118.6299  151.4820  146.2137 C.3     1  UNL111     -0.0137
      4 C         119.8777  151.5247  145.2769 C.3     1  UNL111     -0.0368
      5 C         120.8469  152.5972  145.8034 C.3     1  UNL111     -0.0274
      6 C         119.0672  151.1479  147.6604 C.3     1  UNL111     -0.0422
      7 C         120.2048  153.9854  145.6715 C.3     1  UNL111     -0.0255
      8 C         117.9668  152.8768  146.2450 C.ar    1  UNL111     -0.0496
      9 C         120.1199  152.1048  148.2079 C.3     1  UNL111     -0.0375
     10 C         118.7382  154.0419  146.0230 C.ar    1  UNL111     -0.0622
     11 C         117.6523  150.3896  145.7224 C.3     1  UNL111     -0.0525
     12 C         120.5980  150.1825  145.0687 C.3     1  UNL111     -0.0576
     13 C         122.3571  153.1240  147.8198 C.3     1  UNL111     -0.0242
     14 C         116.6060  153.0369  146.5749 C.ar    1  UNL111     -0.0250
     15 C         118.1374  155.3112  146.0933 C.ar    1  UNL111     -0.0634
     16 C         116.0346  154.3059  146.6464 C.ar    1  UNL111      0.0342
     17 C         116.7894  155.4413  146.4072 C.ar    1  UNL111     -0.0309
     18 C         123.6054  153.1201  146.9965 C.2     1  UNL111     -0.1036
     19 C         124.1947  154.1586  146.3696 C.2     1  UNL111     -0.1100
     20 C         125.4653  153.9563  145.5785 C.3     1  UNL111     -0.0504
     21 C         123.7135  155.5853  146.3806 C.3     1  UNL111     -0.0504
     22 H         114.2734  153.6191  146.9948 H       1  UNL111      0.3342
     23 H         121.7054  151.3168  147.1814 H       1  UNL111      0.1361
     24 H         119.5474  151.8379  144.2744 H       1  UNL111      0.0569
     25 H         121.7670  152.5784  145.2086 H       1  UNL111      0.0834
     26 H         119.4613  150.1249  147.7067 H       1  UNL111      0.0505
     27 H         118.2024  151.1607  148.3370 H       1  UNL111      0.0505
     28 H         120.2881  154.2920  144.6197 H       1  UNL111      0.0609
     29 H         120.7507  154.7309  146.2561 H       1  UNL111      0.0609
     30 H         119.7227  153.1037  148.4130 H       1  UNL111      0.0740
     31 H         120.5321  151.7049  149.1412 H       1  UNL111      0.0740
     32 H         118.1263  149.4035  145.6883 H       1  UNL111      0.0316
     33 H         117.2750  150.6193  144.7194 H       1  UNL111      0.0316
     34 H         116.7902  150.2721  146.3872 H       1  UNL111      0.0316
     35 H         120.8634  149.6893  146.0071 H       1  UNL111      0.0307
     36 H         121.5218  150.3283  144.4976 H       1  UNL111      0.0307
     37 H         119.9791  149.4911  144.4885 H       1  UNL111      0.0307
     38 H         122.5982  152.7066  148.8047 H       1  UNL111      0.0839
     39 H         121.9290  154.1144  147.9831 H       1  UNL111      0.0839
     40 H         115.9777  152.1789  146.7910 H       1  UNL111      0.1125
     41 H         118.7158  156.2133  145.8999 H       1  UNL111      0.0932
     42 H         116.3272  156.4238  146.4612 H       1  UNL111      0.1103
     43 H         124.0966  152.1487  146.9275 H       1  UNL111      0.0895
     44 H         125.7916  152.9111  145.5752 H       1  UNL111      0.0370
     45 H         126.2762  154.5573  146.0030 H       1  UNL111      0.0370
     46 H         125.3138  154.2597  144.5373 H       1  UNL111      0.0370
     47 H         122.8519  155.7485  147.0304 H       1  UNL111      0.0370
     48 H         123.4309  155.8940  145.3688 H       1  UNL111      0.0370
     49 H         124.5104  156.2484  146.7342 H       1  UNL111      0.0370
@<TRIPOS>UNITY_ATOM_ATTR
2 1
charge 1
@<TRIPOS>BOND
     1     1    16    1
     2     2     5    1
     3     2     9    1
     4     2    13    1
     5     3     4    1
     6     3     6    1
     7     3     8    1
     8     3    11    1
     9     4     5    1
    10     4    12    1
    11     5     7    1
    12     6     9    1
    13     7    10    1
    14     8    10   ar
    15     8    14   ar
    16    10    15   ar
    17    13    18    1
    18    14    16   ar
    19    15    17   ar
    20    16    17   ar
    21    18    19    2
    22    19    20    1
    23    19    21    1
    24     1    22    1
    25     2    23    1
    26     4    24    1
    27     5    25    1
    28     6    26    1
    29     6    27    1
    30     7    28    1
    31     7    29    1
    32     9    30    1
    33     9    31    1
    34    11    32    1
    35    11    33    1
    36    11    34    1
    37    12    35    1
    38    12    36    1
    39    12    37    1
    40    13    38    1
    41    13    39    1
    42    14    40    1
    43    15    41    1
    44    17    42    1
    45    18    43    1
    46    20    44    1
    47    20    45    1
    48    20    46    1
    49    21    47    1
    50    21    48    1
    51    21    49    1
@<TRIPOS>MOLECULE
542181
 52 54 0 0 0
SMALL
GASTEIGER

@<TRIPOS>ATOM
      1 O         115.4459  151.4447  145.5379 O.3     1  UNL111     -0.5835
      2 N         121.7915  153.8756  146.6047 N.4     1  UNL111      0.4293
      3 C         119.1624  154.6138  145.5335 C.3     1  UNL111     -0.0137
      4 C         119.9322  155.5226  146.5373 C.3     1  UNL111     -0.0368
      5 C         120.7640  154.6264  147.4653 C.3     1  UNL111     -0.0274
      6 C         120.2150  153.8626  144.6772 C.3     1  UNL111     -0.0422
      7 C         119.8720  153.6929  148.3016 C.3     1  UNL111     -0.0255
      8 C         118.3285  153.5534  146.2680 C.ar    1  UNL111     -0.0494
      9 C         121.1890  153.0313  145.5049 C.3     1  UNL111     -0.0375
     10 C         118.6984  153.1073  147.5538 C.ar    1  UNL111     -0.0621
     11 C         118.3151  155.4956  144.5884 C.3     1  UNL111     -0.0525
     12 C         119.0392  156.4858  147.3355 C.3     1  UNL111     -0.0576
     13 C         122.8105  153.1126  147.4212 C.3     1  UNL111     -0.0242
     14 C         117.2257  152.9385  145.6468 C.ar    1  UNL111     -0.0239
     15 C         117.9413  152.1104  148.1908 C.ar    1  UNL111     -0.0631
     16 C         116.4820  151.9371  146.2805 C.ar    1  UNL111      0.0343
     17 C         116.8415  151.5285  147.5586 C.ar    1  UNL111     -0.0299
     18 C         124.0727  152.8614  146.6578 C.2     1  UNL111     -0.1036
     19 C         124.5143  151.6948  146.1453 C.2     1  UNL111     -0.1100
     20 C         125.8457  151.6209  145.4368 C.3     1  UNL111     -0.0504
     21 C         123.7886  150.3768  146.2094 C.3     1  UNL111     -0.0504
     22 C         114.6173  150.4638  146.1513 C.3     1  UNL111      0.0293
     23 H         122.3360  154.6039  146.1270 H       1  UNL111      0.1361
     24 H         120.6262  156.1607  145.9700 H       1  UNL111      0.0569
     25 H         121.3660  155.2499  148.1380 H       1  UNL111      0.0834
     26 H         120.7901  154.5905  144.0883 H       1  UNL111      0.0505
     27 H         119.7251  153.2028  143.9491 H       1  UNL111      0.0505
     28 H         119.4609  154.2738  149.1381 H       1  UNL111      0.0609
     29 H         120.4618  152.8866  148.7495 H       1  UNL111      0.0609
     30 H         120.7226  152.1532  145.9616 H       1  UNL111      0.0740
     31 H         122.0064  152.6903  144.8618 H       1  UNL111      0.0740
     32 H         118.9061  156.3324  144.1980 H       1  UNL111      0.0316
     33 H         117.4376  155.9099  145.0972 H       1  UNL111      0.0316
     34 H         117.9546  154.9363  143.7179 H       1  UNL111      0.0316
     35 H         118.2126  155.9771  147.8397 H       1  UNL111      0.0307
     36 H         118.6086  157.2510  146.6815 H       1  UNL111      0.0307
     37 H         119.6264  157.0103  148.0973 H       1  UNL111      0.0307
     38 H         122.3345  152.1984  147.7835 H       1  UNL111      0.0839
     39 H         123.0543  153.7295  148.2938 H       1  UNL111      0.0839
     40 H         116.9167  153.2222  144.6425 H       1  UNL111      0.1127
     41 H         118.2002  151.7753  149.1945 H       1  UNL111      0.0932
     42 H         116.2892  150.7599  148.0903 H       1  UNL111      0.1105
     43 H         124.7183  153.7348  146.5554 H       1  UNL111      0.0895
     44 H         126.3543  152.5902  145.4053 H       1  UNL111      0.0370
     45 H         125.7065  151.2852  144.4039 H       1  UNL111      0.0370
     46 H         126.5075  150.9140  145.9477 H       1  UNL111      0.0370
     47 H         122.7991  150.4491  146.6657 H       1  UNL111      0.0370
     48 H         124.3713  149.6543  146.7903 H       1  UNL111      0.0370
     49 H         123.6482  149.9760  145.1998 H       1  UNL111      0.0370
     50 H         113.8298  150.1988  145.4393 H       1  UNL111      0.1069
     51 H         114.1350  150.8607  147.0507 H       1  UNL111      0.1069
     52 H         115.1848  149.5545  146.3749 H       1  UNL111      0.1069
@<TRIPOS>UNITY_ATOM_ATTR
2 1
charge 1
@<TRIPOS>BOND
     1     1    16    1
     2     1    22    1
     3     2     5    1
     4     2     9    1
     5     2    13    1
     6     3     4    1
     7     3     6    1
     8     3     8    1
     9     3    11    1
    10     4     5    1
    11     4    12    1
    12     5     7    1
    13     6     9    1
    14     7    10    1
    15     8    10   ar
    16     8    14   ar
    17    10    15   ar
    18    13    18    1
    19    14    16   ar
    20    15    17   ar
    21    16    17   ar
    22    18    19    2
    23    19    20    1
    24    19    21    1
    25     2    23    1
    26     4    24    1
    27     5    25    1
    28     6    26    1
    29     6    27    1
    30     7    28    1
    31     7    29    1
    32     9    30    1
    33     9    31    1
    34    11    32    1
    35    11    33    1
    36    11    34    1
    37    12    35    1
    38    12    36    1
    39    12    37    1
    40    13    38    1
    41    13    39    1
    42    14    40    1
    43    15    41    1
    44    17    42    1
    45    18    43    1
    46    20    44    1
    47    20    45    1
    48    20    46    1
    49    21    47    1
    50    21    48    1
    51    21    49    1
    52    22    50    1
    53    22    51    1
    54    22    52    1
@<TRIPOS>MOLECULE
137224275
 11 11 0 0 0
SMALL
GASTEIGER

@<TRIPOS>ATOM
      1 CL        117.0099  153.1385  145.8520 Cl      1  UNL1111    -0.0668
      2 N         119.0684  152.2175  147.2233 N.2     1  UNL1111    -0.1379
      3 N         121.6728  153.7783  146.6057 N.2     1  UNL1111    -0.1800
      4 N         120.1998  151.6972  147.0441 N.2     1  UNL1111    -0.0511
      5 N         121.4896  152.8532  145.5701 N.2     1  UNL1111    -0.0613
      6 N         120.7514  151.8575  145.7677 N.2     1  UNL1111    -0.0241
      7 C         119.2928  154.4237  146.2627 C.2     1  UNL1111     0.0294
      8 C         118.6266  153.2771  146.4658 C.2     1  UNL1111     0.1542
      9 C         120.6478  154.5348  146.8404 C.2     1  UNL1111     0.0567
     10 H         118.8895  155.2726  145.7306 H       1  UNL1111     0.1245
     11 H         120.7676  155.3530  147.5700 H       1  UNL1111     0.1564
@<TRIPOS>BOND
     1     1     8    1
     2     2     4    2
     3     2     8    1
     4     3     5    1
     5     3     9    2
     6     4     6    1
     7     5     6    2
     8     7     8    2
     9     7     9    1
    10     7    10    1
    11     9    11    1
@<TRIPOS>MOLECULE
91753913
 57 59 0 0 0
SMALL
GASTEIGER

@<TRIPOS>ATOM
      1 O         115.6651  152.9831  146.8839 O.3     1  UNL111     -0.4745
      2 O         116.5751  151.2173  145.6531 O.2     1  UNL111     -0.3371
      3 N         122.5087  153.5960  146.4447 N.4     1  UNL111      0.4293
      4 C         120.0637  154.8615  145.4530 C.3     1  UNL111     -0.0136
      5 C         121.1938  155.7076  146.1171 C.3     1  UNL111     -0.0368
      6 C         121.9183  154.8248  147.1444 C.3     1  UNL111     -0.0274
      7 C         120.6744  153.6243  144.7522 C.3     1  UNL111     -0.0422
      8 C         120.9635  154.4789  148.2977 C.3     1  UNL111     -0.0255
      9 C         119.1049  154.3375  146.5440 C.3     1  UNL111     -0.0484
     10 C         121.5049  152.7533  145.6887 C.3     1  UNL111     -0.0375
     11 C         119.5579  154.1345  147.8694 C.3     1  UNL111     -0.0620
     12 C         119.3249  155.7213  144.4021 C.3     1  UNL111     -0.0525
     13 C         122.1920  156.3619  145.1483 C.3     1  UNL111     -0.0576
     14 C         123.3832  152.7563  147.3506 C.3     1  UNL111     -0.0242
     15 C         117.7919  153.9448  146.2295 C.3     1  UNL111     -0.0163
     16 C         118.6871  153.6146  148.8464 C.3     1  UNL111     -0.0622
     17 C         116.9652  153.3812  147.2034 C.3     1  UNL111      0.0751
     18 C         117.3889  153.2409  148.5161 C.3     1  UNL111     -0.0223
     19 C         124.4230  152.0015  146.5831 C.2     1  UNL111     -0.1036
     20 C         124.4624  150.6817  146.3094 C.2     1  UNL111     -0.1100
     21 C         123.4162  149.6722  146.7011 C.3     1  UNL111     -0.0504
     22 C         125.6276  150.0875  145.5545 C.3     1  UNL111     -0.0504
     23 C         115.6134  151.8410  146.0843 C.2     1  UNL111      0.2263
     24 C         114.1612  151.5082  145.8275 C.3     1  UNL111      0.0593
     25 C         114.0041  150.2331  145.0180 C.3     1  UNL111     -0.0378
     26 H         123.1547  153.9582  145.7345 H       1  UNL111      0.1361
     27 H         120.7268  156.5413  146.6637 H       1  UNL111      0.0569
     28 H         122.7822  155.3618  147.5559 H       1  UNL111      0.0834
     29 H         121.3036  153.9406  143.9109 H       1  UNL111      0.0505
     30 H         119.8851  153.0016  144.3103 H       1  UNL111      0.0505
     31 H         120.8882  155.3620  148.9470 H       1  UNL111      0.0609
     32 H         121.3728  153.6716  148.9141 H       1  UNL111      0.0609
     33 H         120.8951  152.2109  146.4176 H       1  UNL111      0.0740
     34 H         122.0654  152.0212  145.0988 H       1  UNL111      0.0740
     35 H         120.0062  156.1000  143.6336 H       1  UNL111      0.0316
     36 H         118.8317  156.5803  144.8713 H       1  UNL111      0.0316
     37 H         118.5631  155.1533  143.8583 H       1  UNL111      0.0316
     38 H         122.6420  155.6500  144.4519 H       1  UNL111      0.0307
     39 H         123.0058  156.8408  145.7042 H       1  UNL111      0.0307
     40 H         121.7104  157.1496  144.5607 H       1  UNL111      0.0307
     41 H         122.7313  152.1164  147.9508 H       1  UNL111      0.0839
     42 H         123.8964  153.4413  148.0353 H       1  UNL111      0.0839
     43 H         117.3966  154.0324  145.2217 H       1  UNL111      0.1139
     44 H         119.0201  153.4878  149.8756 H       1  UNL111      0.0933
     45 H         116.7239  152.8308  149.2708 H       1  UNL111      0.1116
     46 H         125.2673  152.6096  146.2550 H       1  UNL111      0.0895
     47 H         122.5520  150.1169  147.1992 H       1  UNL111      0.0370
     48 H         123.8460  148.9288  147.3803 H       1  UNL111      0.0370
     49 H         123.0440  149.1533  145.8113 H       1  UNL111      0.0370
     50 H         126.3767  150.8399  145.2866 H       1  UNL111      0.0370
     51 H         125.2794  149.6205  144.6274 H       1  UNL111      0.0370
     52 H         126.1247  149.3257  146.1640 H       1  UNL111      0.0370
     53 H         113.7054  152.3433  145.2854 H       1  UNL111      0.0846
     54 H         113.6565  151.3876  146.7920 H       1  UNL111      0.0846
     55 H         114.4919  150.3243  144.0418 H       1  UNL111      0.0335
     56 H         112.9448  150.0146  144.8520 H       1  UNL111      0.0335
     57 H         114.4527  149.3799  145.5377 H       1  UNL111      0.0335
@<TRIPOS>UNITY_ATOM_ATTR
3 1
charge 1
@<TRIPOS>BOND
     1     1    17    1
     2     1    23    1
     3     2    23    2
     4     3     6    1
     5     3    10    1
     6     3    14    1
     7     4     5    1
     8     4     7    1
     9     4     9    1
    10     4    12    1
    11     5     6    1
    12     5    13    1
    13     6     8    1
    14     7    10    1
    15     8    11    1
    16     9    11   ar
    17     9    15   ar
    18    11    16   ar
    19    14    19    1
    20    15    17   ar
    21    16    18   ar
    22    17    18   ar
    23    19    20    2
    24    20    21    1
    25    20    22    1
    26    23    24    1
    27    24    25    1
    28     3    26    1
    29     5    27    1
    30     6    28    1
    31     7    29    1
    32     7    30    1
    33     8    31    1
    34     8    32    1
    35    10    33    1
    36    10    34    1
    37    12    35    1
    38    12    36    1
    39    12    37    1
    40    13    38    1
    41    13    39    1
    42    13    40    1
    43    14    41    1
    44    14    42    1
    45    15    43    1
    46    16    44    1
    47    18    45    1
    48    19    46    1
    49    21    47    1
    50    21    48    1
    51    21    49    1
    52    22    50    1
    53    22    51    1
    54    22    52    1
    55    24    53    1
    56    24    54    1
    57    25    55    1
    58    25    56    1
    59    25    57    1
@<TRIPOS>MOLECULE
122707128
 68 71 0 0 0
SMALL
GASTEIGER

@<TRIPOS>ATOM
      1 O         122.2977  151.5345  147.3128 O.2     1  UNL111     -0.5329
      2 O         122.5127  152.5677  145.1549 O.3     1  UNL111     -0.3730
      3 O         124.4619  149.7480  146.5638 O.3     1  UNL111     -0.4216
      4 O         126.4606  151.6743  146.1525 O.3     1  UNL111     -0.4308
      5 O         125.5858  154.3916  146.2237 O.3     1  UNL111     -0.4313
      6 O         121.9094  155.5287  144.9979 O.co2   1  UNL111     -0.5544
      7 O         123.5763  154.9796  143.5341 O.co2   1  UNL111     -0.5544
      8 N         116.1926  153.9759  145.4981 N.4     1  UNL111      0.4293
      9 C         118.5065  154.6799  147.1496 C.3     1  UNL111     -0.0137
     10 C         117.0493  154.8090  147.6752 C.3     1  UNL111     -0.0368
     11 C         116.1992  153.7155  147.0145 C.3     1  UNL111     -0.0274
     12 C         118.4813  154.9358  145.6198 C.3     1  UNL111     -0.0422
     13 C         119.0446  153.2570  147.3650 C.3     1  UNL111     -0.0490
     14 C         116.6828  152.3061  147.4004 C.3     1  UNL111     -0.0255
     15 C         117.5717  153.9808  144.8635 C.3     1  UNL111     -0.0375
     16 C         118.1814  152.1450  147.4427 C.3     1  UNL111     -0.0621
     17 C         119.3844  155.7695  147.8058 C.3     1  UNL111     -0.0525
     18 C         116.9213  154.7777  149.2063 C.3     1  UNL111     -0.0576
     19 C         115.2222  153.1353  144.7057 C.3     1  UNL111     -0.0242
     20 C         120.4255  153.0190  147.3557 C.3     1  UNL111     -0.0205
     21 C         118.7154  150.8485  147.5720 C.3     1  UNL111     -0.0628
     22 C         120.9427  151.7257  147.3993 C.3     1  UNL111      0.0538
     23 C         120.0941  150.6389  147.5513 C.3     1  UNL111     -0.0265
     24 C         113.8030  153.3524  145.1359 C.2     1  UNL111     -0.1036
     25 C         122.7022  151.3965  145.9336 C.3     1  UNL111      0.1464
     26 C         112.9700  152.4918  145.7564 C.2     1  UNL111     -0.1100
     27 C         124.1710  150.9484  145.8246 C.3     1  UNL111      0.0990
     28 C         125.0822  152.0677  146.3134 C.3     1  UNL111      0.0797
     29 C         124.8247  153.3750  145.5479 C.3     1  UNL111      0.0796
     30 C         123.3311  153.7027  145.5553 C.3     1  UNL111      0.1101
     31 C         111.5690  152.9141  146.1297 C.3     1  UNL111     -0.0504
     32 C         113.2959  151.0741  146.1419 C.3     1  UNL111     -0.0504
     33 C         122.9310  154.8722  144.6147 C.2     1  UNL111      0.0700
     34 H         123.8181  149.0765  146.2803 H       1  UNL111      0.2455
     35 H         126.5010  150.7714  146.5252 H       1  UNL111      0.2420
     36 H         126.5102  154.0825  146.1740 H       1  UNL111      0.2419
     37 H         115.8578  154.9397  145.3870 H       1  UNL111      0.1361
     38 H         116.6492  155.7855  147.3634 H       1  UNL111      0.0569
     39 H         115.1582  153.8364  147.3340 H       1  UNL111      0.0834
     40 H         119.4854  154.8521  145.1928 H       1  UNL111      0.0505
     41 H         118.1515  155.9658  145.4265 H       1  UNL111      0.0505
     42 H         116.2586  151.5507  146.7338 H       1  UNL111      0.0609
     43 H         116.3056  152.0770  148.4058 H       1  UNL111      0.0609
     44 H         117.4474  154.3244  143.8303 H       1  UNL111      0.0740
     45 H         117.9396  152.9508  144.8386 H       1  UNL111      0.0740
     46 H         118.8898  156.7472  147.7665 H       1  UNL111      0.0316
     47 H         120.3455  155.8892  147.2951 H       1  UNL111      0.0316
     48 H         119.5998  155.5400  148.8550 H       1  UNL111      0.0316
     49 H         117.4148  153.9105  149.6543 H       1  UNL111      0.0307
     50 H         115.8669  154.7560  149.5026 H       1  UNL111      0.0307
     51 H         117.3596  155.6763  149.6523 H       1  UNL111      0.0307
     52 H         115.5526  152.0965  144.7601 H       1  UNL111      0.0839
     53 H         115.3119  153.4503  143.6593 H       1  UNL111      0.0839
     54 H         121.1161  153.8496  147.2524 H       1  UNL111      0.1132
     55 H         118.0579  149.9870  147.6705 H       1  UNL111      0.0932
     56 H         120.5003  149.6357  147.6340 H       1  UNL111      0.1109
     57 H         113.4141  154.3422  144.8931 H       1  UNL111      0.0895
     58 H         122.0946  150.5999  145.4832 H       1  UNL111      0.1970
     59 H         124.4145  150.7352  144.7758 H       1  UNL111      0.1390
     60 H         124.9533  152.2247  147.3920 H       1  UNL111      0.1254
     61 H         125.2183  153.2912  144.5284 H       1  UNL111      0.1249
     62 H         123.0603  154.0081  146.5717 H       1  UNL111      0.1368
     63 H         111.3567  153.9503  145.8463 H       1  UNL111      0.0370
     64 H         111.4263  152.8310  147.2124 H       1  UNL111      0.0370
     65 H         110.8332  152.2748  145.6312 H       1  UNL111      0.0370
     66 H         114.2534  150.7283  145.7486 H       1  UNL111      0.0370
     67 H         112.5297  150.3925  145.7570 H       1  UNL111      0.0370
     68 H         113.3251  150.9790  147.2324 H       1  UNL111      0.0370
@<TRIPOS>UNITY_ATOM_ATTR
6 1
charge -1
8 1
charge 1
@<TRIPOS>BOND
     1     1    22    1
     2     1    25    1
     3     2    25    1
     4     2    30    1
     5     3    27    1
     6     4    28    1
     7     5    29    1
     8     6    33   ar
     9     7    33   ar
    10     8    11    1
    11     8    15    1
    12     8    19    1
    13     9    10    1
    14     9    12    1
    15     9    13    1
    16     9    17    1
    17    10    11    1
    18    10    18    1
    19    11    14    1
    20    12    15    1
    21    13    16   ar
    22    13    20   ar
    23    14    16    1
    24    16    21   ar
    25    19    24    1
    26    20    22   ar
    27    21    23   ar
    28    22    23   ar
    29    24    26    2
    30    25    27    1
    31    26    31    1
    32    26    32    1
    33    27    28    1
    34    28    29    1
    35    29    30    1
    36    30    33    1
    37     3    34    1
    38     4    35    1
    39     5    36    1
    40     8    37    1
    41    10    38    1
    42    11    39    1
    43    12    40    1
    44    12    41    1
    45    14    42    1
    46    14    43    1
    47    15    44    1
    48    15    45    1
    49    17    46    1
    50    17    47    1
    51    17    48    1
    52    18    49    1
    53    18    50    1
    54    18    51    1
    55    19    52    1
    56    19    53    1
    57    20    54    1
    58    21    55    1
    59    23    56    1
    60    24    57    1
    61    25    58    1
    62    27    59    1
    63    28    60    1
    64    29    61    1
    65    30    62    1
    66    31    63    1
    67    31    64    1
    68    31    65    1
    69    32    66    1
    70    32    67    1
    71    32    68    1
@<TRIPOS>MOLECULE
159618115
 24 24 0 0 0
SMALL
GASTEIGER

@<TRIPOS>ATOM
      1 N         121.3892  152.9397  146.4431 N.pl3   1  UNL1111    -0.3230
      2 N         118.6341  153.8698  145.5333 N.2     1  UNL1111    -0.2192
      3 N         121.2867  154.1932  147.0010 N.2     1  UNL1111    -0.1162
      4 N         119.6605  154.5850  145.5209 N.2     1  UNL1111    -0.0763
      5 N         120.2436  154.8484  146.7608 N.2     1  UNL1111    -0.0436
      6 C         120.3917  151.8934  146.7585 C.3     1  UNL1111     0.0264
      7 C         119.1358  152.3751  147.5185 C.3     1  UNL1111    -0.0035
      8 C         118.1331  153.2947  146.7910 C.3     1  UNL1111     0.0574
      9 C         120.0351  151.0472  145.5330 C.3     1  UNL1111    -0.0413
     10 C         116.8530  152.5316  146.4397 C.3     1  UNL1111    -0.0332
     11 C         122.7501  152.5300  146.1369 C.3     1  UNL1111     0.0147
     12 H         120.9082  151.2269  147.4639 H       1  UNL1111     0.0885
     13 H         119.4672  152.8948  148.4288 H       1  UNL1111     0.0555
     14 H         118.6061  151.4914  147.9003 H       1  UNL1111     0.0555
     15 H         117.8362  154.1065  147.4684 H       1  UNL1111     0.1038
     16 H         119.6775  151.6560  144.6982 H       1  UNL1111     0.0364
     17 H         119.2643  150.3091  145.7786 H       1  UNL1111     0.0364
     18 H         120.9076  150.4925  145.1729 H       1  UNL1111     0.0364
     19 H         117.0577  151.7030  145.7534 H       1  UNL1111     0.0390
     20 H         116.1312  153.1937  145.9485 H       1  UNL1111     0.0390
     21 H         116.3782  152.1253  147.3388 H       1  UNL1111     0.0390
     22 H         123.3324  153.4008  145.8202 H       1  UNL1111     0.0762
     23 H         122.7447  151.8034  145.3217 H       1  UNL1111     0.0762
     24 H         123.2024  152.0903  147.0300 H       1  UNL1111     0.0762
@<TRIPOS>BOND
     1     1     3    1
     2     1     6    1
     3     1    11    1
     4     2     4    2
     5     2     8    1
     6     3     5    2
     7     4     5    1
     8     6     7    1
     9     6     9    1
    10     7     8    1
    11     8    10    1
    12     6    12    1
    13     7    13    1
    14     7    14    1
    15     8    15    1
    16     9    16    1
    17     9    17    1
    18     9    18    1
    19    10    19    1
    20    10    20    1
    21    10    21    1
    22    11    22    1
    23    11    23    1
    24    11    24    1
@<TRIPOS>MOLECULE
68888389
 11 11 0 0 0
SMALL
GASTEIGER

@<TRIPOS>ATOM
      1 N         120.3851  154.4911  145.8477 N.2     1  UNL1111    -0.0615
      2 N         119.1463  154.2834  145.8084 N.2     1  UNL1111    -0.0256
      3 N         121.1155  154.0021  146.9400 N.2     1  UNL1111    -0.1814
      4 N         118.5661  153.6183  146.8955 N.2     1  UNL1111    -0.0615
      5 N         118.4747  152.3675  146.7974 N.2     1  UNL1111    -0.1814
      6 C         120.6757  151.7208  146.0357 C.2     1  UNL1111    -0.0068
      7 C         121.2894  152.7182  146.9413 C.2     1  UNL1111     0.0482
      8 C         119.3367  151.6426  146.0087 C.2     1  UNL1111     0.0482
      9 H         121.3230  151.0801  145.4552 H       1  UNL1111     0.1126
     10 H         121.9472  152.2877  147.7146 H       1  UNL1111     0.1548
     11 H         118.8575  150.9008  145.3769 H       1  UNL1111     0.1548
@<TRIPOS>BOND
     1     1     2    2
     2     1     3    1
     3     2     4    1
     4     3     7    2
     5     4     5    2
     6     5     8    1
     7     6     7    1
     8     6     8    2
     9     6     9    1
    10     7    10    1
    11     8    11    1
@<TRIPOS>MOLECULE
22879767
 75 79 0 0 0
SMALL
GASTEIGER

@<TRIPOS>ATOM
      1 O         120.0086  151.4533  144.4064 O.3     1  UNL1111    -0.4230
      2 O         117.6457  155.1893  147.2348 O.2     1  UNL1111    -0.4212
      3 O         121.9144  150.5177  147.1989 O.2     1  UNL1111    -0.3907
      4 O         123.5818  152.4831  146.4248 O.3     1  UNL1111    -0.5003
      5 O         111.2873  155.4935  145.4417 O.2     1  UNL1111    -0.4127
      6 O         124.1409  154.1767  144.9912 O.2     1  UNL1111    -0.3399
      7 C         117.6625  151.3118  146.0741 C.3     1  UNL1111    -0.0293
      8 C         118.9599  152.0294  146.5324 C.3     1  UNL1111     0.0157
      9 C         116.3891  151.8836  146.7149 C.3     1  UNL1111    -0.0261
     10 C         116.2575  153.3877  146.3358 C.3     1  UNL1111     0.0316
     11 C         120.0241  151.1507  145.8050 C.3     1  UNL1111     0.1011
     12 C         117.9710  149.8361  146.2927 C.3     1  UNL1111    -0.0437
     13 C         114.9630  154.0629  146.9196 C.3     1  UNL1111    -0.0083
     14 C         118.8521  153.4898  146.0765 C.3     1  UNL1111     0.0302
     15 C         119.4727  149.7054  145.9821 C.3     1  UNL1111    -0.0109
     16 C         115.1424  151.1163  146.2545 C.3     1  UNL1111    -0.0486
     17 C         117.5817  154.1167  146.6375 C.2     1  UNL1111     0.0857
     18 C         119.1740  151.9934  148.0693 C.3     1  UNL1111    -0.0483
     19 C         113.7456  153.1803  146.5853 C.2     1  UNL1111    -0.0754
     20 C         113.8768  151.7019  146.8660 C.3     1  UNL1111    -0.0377
     21 C         114.7871  155.4630  146.2565 C.3     1  UNL1111    -0.0284
     22 C         121.4656  151.2954  146.3529 C.2     1  UNL1111     0.1588
     23 C         115.0167  154.2173  148.4565 C.3     1  UNL1111    -0.0536
     24 C         113.3980  156.0599  146.4337 C.3     1  UNL1111     0.0221
     25 C         112.5876  153.6579  146.0946 C.2     1  UNL1111    -0.0162
     26 C         112.3513  155.1091  145.9201 C.2     1  UNL1111     0.1009
     27 C         122.2949  152.4537  145.8043 C.3     1  UNL1111     0.1362
     28 C         124.4265  153.4133  145.9021 C.2     1  UNL1111     0.2177
     29 C         128.1042  154.3140  146.7700 C.3     1  UNL1111    -0.0526
     30 C         125.7542  153.3510  146.6202 C.3     1  UNL1111     0.0604
     31 C         126.7722  154.3201  146.0188 C.3     1  UNL1111    -0.0297
     32 C         129.1146  155.2943  146.1773 C.3     1  UNL1111    -0.0605
     33 C         128.8625  152.9895  146.6994 C.3     1  UNL1111    -0.0605
     34 C         130.4435  154.8528  146.7768 C.3     1  UNL1111    -0.0628
     35 C         130.3060  153.3532  147.0386 C.3     1  UNL1111    -0.0628
     36 H         120.4439  150.7234  143.9278 H       1  UNL1111     0.2460
     37 H         117.5510  151.4459  144.9857 H       1  UNL1111     0.0464
     38 H         116.4627  151.7785  147.8030 H       1  UNL1111     0.0476
     39 H         116.1706  153.4351  145.2381 H       1  UNL1111     0.0774
     40 H         117.3756  149.1925  145.6367 H       1  UNL1111     0.0370
     41 H         117.7672  149.5316  147.3255 H       1  UNL1111     0.0370
     42 H         118.8092  153.5886  144.9864 H       1  UNL1111     0.0706
     43 H         119.7077  154.0752  146.4273 H       1  UNL1111     0.0706
     44 H         119.9515  149.1613  146.8029 H       1  UNL1111     0.0521
     45 H         119.6128  149.1069  145.0746 H       1  UNL1111     0.0521
     46 H         115.2163  150.0623  146.5462 H       1  UNL1111     0.0365
     47 H         115.0683  151.1387  145.1595 H       1  UNL1111     0.0365
     48 H         119.2462  150.9736  148.4595 H       1  UNL1111     0.0317
     49 H         118.3685  152.4913  148.6174 H       1  UNL1111     0.0317
     50 H         120.0993  152.5135  148.3428 H       1  UNL1111     0.0317
     51 H         113.8866  151.5447  147.9516 H       1  UNL1111     0.0446
     52 H         113.0120  151.1460  146.4832 H       1  UNL1111     0.0446
     53 H         114.9858  155.3828  145.1784 H       1  UNL1111     0.0426
     54 H         115.5150  156.1800  146.6504 H       1  UNL1111     0.0426
     55 H         115.2690  153.2787  148.9595 H       1  UNL1111     0.0312
     56 H         114.0504  154.5421  148.8605 H       1  UNL1111     0.0312
     57 H         115.7536  154.9623  148.7699 H       1  UNL1111     0.0312
     58 H         113.3317  156.9913  145.8607 H       1  UNL1111     0.0679
     59 H         113.1841  156.2879  147.4825 H       1  UNL1111     0.0679
     60 H         111.7412  153.0226  145.8563 H       1  UNL1111     0.1125
     61 H         122.4125  152.3061  144.7256 H       1  UNL1111     0.1533
     62 H         121.7779  153.3916  146.0179 H       1  UNL1111     0.1533
     63 H         127.9301  154.5744  147.8230 H       1  UNL1111     0.0390
     64 H         126.1272  152.3238  146.5475 H       1  UNL1111     0.0858
     65 H         125.5832  153.5971  147.6739 H       1  UNL1111     0.0858
     66 H         126.9332  154.0710  144.9619 H       1  UNL1111     0.0412
     67 H         126.3595  155.3371  146.0341 H       1  UNL1111     0.0412
     68 H         128.8801  156.3347  146.4227 H       1  UNL1111     0.0333
     69 H         129.1519  155.2047  145.0845 H       1  UNL1111     0.0333
     70 H         128.8170  152.5690  145.6873 H       1  UNL1111     0.0333
     71 H         128.4630  152.2409  147.3906 H       1  UNL1111     0.0333
     72 H         130.6240  155.3773  147.7225 H       1  UNL1111     0.0321
     73 H         131.2822  155.0781  146.1107 H       1  UNL1111     0.0321
     74 H         131.0089  152.7713  146.4335 H       1  UNL1111     0.0321
     75 H         130.5224  153.1361  148.0907 H       1  UNL1111     0.0321
@<TRIPOS>BOND
     1     1    11    1
     2     2    17    2
     3     3    22    2
     4     4    27    1
     5     4    28    1
     6     5    26    2
     7     6    28    2
     8     7     8    1
     9     7     9    1
    10     7    12    1
    11     8    11    1
    12     8    14    1
    13     8    18    1
    14     9    10    1
    15     9    16    1
    16    10    13    1
    17    10    17    1
    18    11    15    1
    19    11    22    1
    20    12    15    1
    21    13    19    1
    22    13    21    1
    23    13    23    1
    24    14    17    1
    25    16    20    1
    26    19    20    1
    27    19    25    2
    28    21    24    1
    29    22    27    1
    30    24    26    1
    31    25    26    1
    32    28    30    1
    33    29    31    1
    34    29    32    1
    35    29    33    1
    36    30    31    1
    37    32    34    1
    38    33    35    1
    39    34    35    1
    40     1    36    1
    41     7    37    1
    42     9    38    1
    43    10    39    1
    44    12    40    1
    45    12    41    1
    46    14    42    1
    47    14    43    1
    48    15    44    1
    49    15    45    1
    50    16    46    1
    51    16    47    1
    52    18    48    1
    53    18    49    1
    54    18    50    1
    55    20    51    1
    56    20    52    1
    57    21    53    1
    58    21    54    1
    59    23    55    1
    60    23    56    1
    61    23    57    1
    62    24    58    1
    63    24    59    1
    64    25    60    1
    65    27    61    1
    66    27    62    1
    67    29    63    1
    68    30    64    1
    69    30    65    1
    70    31    66    1
    71    31    67    1
    72    32    68    1
    73    32    69    1
    74    33    70    1
    75    33    71    1
    76    34    72    1
    77    34    73    1
    78    35    74    1
    79    35    75    1
@<TRIPOS>MOLECULE
154572910
 13 13 0 0 0
SMALL
GASTEIGER

@<TRIPOS>ATOM
      1 O         117.2760  153.5314  147.7016 O.co2   1  UNL1111    -0.5439
      2 O         117.1609  152.1871  145.8693 O.co2   1  UNL1111    -0.5439
      3 N         119.8152  154.2760  146.9253 N.2     1  UNL1111    -0.1552
      4 N         121.6290  151.7381  146.5925 N.2     1  UNL1111    -0.1807
      5 N         121.0432  154.6752  146.3850 N.2     1  UNL1111    -0.0559
      6 N         121.8851  152.7662  147.2691 N.2     1  UNL1111    -0.0614
      7 N         122.0505  153.9422  146.5305 N.2     1  UNL1111    -0.0249
      8 C         119.2167  153.3099  146.2834 C.2     1  UNL1111     0.1204
      9 C         119.8085  152.4953  145.1805 C.2     1  UNL1111     0.0154
     10 C         117.7597  152.9856  146.6624 C.2     1  UNL1111     0.1028
     11 C         120.9381  151.8091  145.4054 C.2     1  UNL1111     0.0529
     12 H         119.2324  152.4103  144.2690 H       1  UNL1111     0.1190
     13 H         121.3152  151.1573  144.6248 H       1  UNL1111     0.1556
@<TRIPOS>UNITY_ATOM_ATTR
1 1
charge -1
@<TRIPOS>BOND
     1     1    10   ar
     2     2    10   ar
     3     3     5    1
     4     3     8    2
     5     4     6    2
     6     4    11    1
     7     5     7    2
     8     6     7    1
     9     8     9    1
    10     8    10    1
    11     9    11    2
    12     9    12    1
    13    11    13    1
@<TRIPOS>MOLECULE
12259682
 49 51 0 0 0
SMALL
GASTEIGER

@<TRIPOS>ATOM
      1 O         124.4405  153.2513  148.8039 O.3     1  UNL111     -0.5646
      2 N         118.4906  153.4731  146.1009 N.4     1  UNL111      0.4293
      3 C         120.7169  151.6784  145.8951 C.3     1  UNL111     -0.0137
      4 C         120.0701  152.1514  144.5672 C.3     1  UNL111     -0.0368
      5 C         119.3673  153.4914  144.8328 C.3     1  UNL111     -0.0274
      6 C         119.6194  151.3907  146.9504 C.3     1  UNL111     -0.0422
      7 C         120.4488  154.5672  145.0169 C.3     1  UNL111     -0.0255
      8 C         121.6372  152.8023  146.4440 C.ar    1  UNL111     -0.0496
      9 C         118.3008  152.1337  146.7484 C.3     1  UNL111     -0.0375
     10 C         121.4859  154.1502  146.0330 C.ar    1  UNL111     -0.0622
     11 C         121.5278  150.3863  145.6353 C.3     1  UNL111     -0.0525
     12 C         119.1673  151.1349  143.8524 C.3     1  UNL111     -0.0576
     13 C         117.1818  154.1933  145.8489 C.3     1  UNL111     -0.0242
     14 C         122.6322  152.5125  147.4009 C.ar    1  UNL111     -0.0250
     15 C         122.3409  155.1448  146.5383 C.ar    1  UNL111     -0.0634
     16 C         123.4640  153.5163  147.8921 C.ar    1  UNL111      0.0342
     17 C         123.3260  154.8267  147.4670 C.ar    1  UNL111     -0.0309
     18 C         116.3528  154.3868  147.0778 C.2     1  UNL111     -0.1036
     19 C         115.2092  153.7526  147.4069 C.2     1  UNL111     -0.1100
     20 C         114.4639  154.1121  148.6701 C.3     1  UNL111     -0.0504
     21 C         114.5445  152.6640  146.6047 C.3     1  UNL111     -0.0504
     22 H         124.5282  152.2911  148.9221 H       1  UNL111      0.3342
     23 H         118.9804  154.0318  146.8141 H       1  UNL111      0.1361
     24 H         120.8773  152.3477  143.8436 H       1  UNL111      0.0569
     25 H         118.7244  153.7658  143.9881 H       1  UNL111      0.0834
     26 H         119.9907  151.6044  147.9617 H       1  UNL111      0.0505
     27 H         119.3778  150.3193  146.9633 H       1  UNL111      0.0505
     28 H         119.9857  155.5145  145.3199 H       1  UNL111      0.0609
     29 H         120.9572  154.7426  144.0603 H       1  UNL111      0.0609
     30 H         117.5953  151.5660  146.1361 H       1  UNL111      0.0740
     31 H         117.8348  152.2941  147.7267 H       1  UNL111      0.0740
     32 H         120.9052  149.5983  145.1987 H       1  UNL111      0.0316
     33 H         121.9400  149.9605  146.5559 H       1  UNL111      0.0316
     34 H         122.3618  150.5734  144.9493 H       1  UNL111      0.0316
     35 H         118.4675  150.6214  144.5119 H       1  UNL111      0.0307
     36 H         119.7754  150.3612  143.3710 H       1  UNL111      0.0307
     37 H         118.5901  151.6193  143.0576 H       1  UNL111      0.0307
     38 H         116.6602  153.6421  145.0612 H       1  UNL111      0.0839
     39 H         117.4391  155.1798  145.4454 H       1  UNL111      0.0839
     40 H         122.7666  151.5021  147.7752 H       1  UNL111      0.1125
     41 H         122.2549  156.1782  146.2058 H       1  UNL111      0.0932
     42 H         123.9904  155.5960  147.8528 H       1  UNL111      0.1103
     43 H         116.7114  155.1703  147.7470 H       1  UNL111      0.0895
     44 H         114.9568  154.9136  149.2299 H       1  UNL111      0.0370
     45 H         114.3928  153.2402  149.3286 H       1  UNL111      0.0370
     46 H         113.4507  154.4496  148.4279 H       1  UNL111      0.0370
     47 H         115.1213  152.3556  145.7303 H       1  UNL111      0.0370
     48 H         113.5629  152.9994  146.2545 H       1  UNL111      0.0370
     49 H         114.4042  151.7726  147.2253 H       1  UNL111      0.0370
@<TRIPOS>UNITY_ATOM_ATTR
2 1
charge 1
@<TRIPOS>BOND
     1     1    16    1
     2     2     5    1
     3     2     9    1
     4     2    13    1
     5     3     4    1
     6     3     6    1
     7     3     8    1
     8     3    11    1
     9     4     5    1
    10     4    12    1
    11     5     7    1
    12     6     9    1
    13     7    10    1
    14     8    10   ar
    15     8    14   ar
    16    10    15   ar
    17    13    18    1
    18    14    16   ar
    19    15    17   ar
    20    16    17   ar
    21    18    19    2
    22    19    20    1
    23    19    21    1
    24     1    22    1
    25     2    23    1
    26     4    24    1
    27     5    25    1
    28     6    26    1
    29     6    27    1
    30     7    28    1
    31     7    29    1
    32     9    30    1
    33     9    31    1
    34    11    32    1
    35    11    33    1
    36    11    34    1
    37    12    35    1
    38    12    36    1
    39    12    37    1
    40    13    38    1
    41    13    39    1
    42    14    40    1
    43    15    41    1
    44    17    42    1
    45    18    43    1
    46    20    44    1
    47    20    45    1
    48    20    46    1
    49    21    47    1
    50    21    48    1
    51    21    49    1
@<TRIPOS>MOLECULE
53400637
 11 11 0 0 0
SMALL
GASTEIGER

@<TRIPOS>ATOM
      1 N         118.3562  153.4891  146.8929 N.2     1  UNL1111    -0.1814
      2 N         121.3138  152.5133  146.8347 N.2     1  UNL1111    -0.1814
      3 N         118.4717  152.5525  145.8577 N.2     1  UNL1111    -0.0615
      4 N         120.2971  151.7838  146.9676 N.2     1  UNL1111    -0.0615
      5 N         119.4305  151.7413  145.8675 N.2     1  UNL1111    -0.0256
      6 C         120.3976  154.5704  145.9540 C.2     1  UNL1111    -0.0068
      7 C         119.2270  154.4476  146.8521 C.2     1  UNL1111     0.0482
      8 C         121.3199  153.5969  145.9883 C.2     1  UNL1111     0.0482
      9 H         120.4784  155.4462  145.3269 H       1  UNL1111     0.1126
     10 H         119.1205  155.2718  147.5769 H       1  UNL1111     0.1548
     11 H         122.2026  153.6758  145.3608 H       1  UNL1111     0.1548
@<TRIPOS>BOND
     1     1     3    1
     2     1     7    2
     3     2     4    2
     4     2     8    1
     5     3     5    2
     6     4     5    1
     7     6     7    1
     8     6     8    2
     9     6     9    1
    10     7    10    1
    11     8    11    1
@<TRIPOS>MOLECULE
58506875
 49 51 0 0 0
SMALL
GASTEIGER

@<TRIPOS>ATOM
      1 O         125.0217  152.1444  145.1311 O.3     1  UNL111     -0.5646
      2 N         118.2725  153.0298  146.4189 N.4     1  UNL111      0.4293
      3 C         120.7499  154.5380  145.9910 C.3     1  UNL111     -0.0137
      4 C         119.8242  154.7942  147.2173 C.3     1  UNL111     -0.0368
      5 C         119.1441  153.4724  147.5997 C.3     1  UNL111     -0.0274
      6 C         119.8528  154.0796  144.8099 C.3     1  UNL111     -0.0422
      7 C         120.1655  152.4055  148.0239 C.3     1  UNL111     -0.0255
      8 C         121.7514  153.4074  146.2771 C.ar    1  UNL111     -0.0496
      9 C         119.0207  152.8407  145.1222 C.3     1  UNL111     -0.0375
     10 C         121.4378  152.3906  147.2099 C.ar    1  UNL111     -0.0622
     11 C         121.4375  155.8609  145.5831 C.3     1  UNL111     -0.0525
     12 C         120.5294  155.4339  148.4236 C.3     1  UNL111     -0.0576
     13 C         117.3735  151.8595  146.7419 C.3     1  UNL111     -0.0242
     14 C         122.9647  153.3115  145.5680 C.ar    1  UNL111     -0.0250
     15 C         122.3422  151.3383  147.4335 C.ar    1  UNL111     -0.0634
     16 C         123.8417  152.2551  145.8025 C.ar    1  UNL111      0.0342
     17 C         123.5391  151.2707  146.7282 C.ar    1  UNL111     -0.0309
     18 C         116.1407  151.8638  145.8953 C.2     1  UNL111     -0.1036
     19 C         115.0119  152.5715  146.1035 C.2     1  UNL111     -0.1100
     20 C         114.7823  153.5277  147.2435 C.3     1  UNL111     -0.0504
     21 C         113.8342  152.4363  145.1692 C.3     1  UNL111     -0.0504
     22 H         125.1696  152.9392  144.5929 H       1  UNL111      0.3342
     23 H         117.6165  153.8047  146.2550 H       1  UNL111      0.1361
     24 H         119.0391  155.5053  146.9194 H       1  UNL111      0.0569
     25 H         118.4373  153.6458  148.4207 H       1  UNL111      0.0834
     26 H         120.4595  153.8765  143.9177 H       1  UNL111      0.0505
     27 H         119.1711  154.8963  144.5346 H       1  UNL111      0.0505
     28 H         119.7119  151.4084  148.0138 H       1  UNL111      0.0609
     29 H         120.4533  152.6045  149.0649 H       1  UNL111      0.0609
     30 H         118.2782  152.6879  144.3316 H       1  UNL111      0.0740
     31 H         119.6244  151.9316  145.2024 H       1  UNL111      0.0740
     32 H         120.7121  156.6815  145.5346 H       1  UNL111      0.0316
     33 H         121.8991  155.7946  144.5914 H       1  UNL111      0.0316
     34 H         122.2233  156.1461  146.2914 H       1  UNL111      0.0316
     35 H         121.4203  154.8811  148.7351 H       1  UNL111      0.0307
     36 H         119.8494  155.4863  149.2809 H       1  UNL111      0.0307
     37 H         120.8371  156.4597  148.1970 H       1  UNL111      0.0307
     38 H         117.1117  151.9157  147.8038 H       1  UNL111      0.0839
     39 H         117.9451  150.9374  146.5896 H       1  UNL111      0.0839
     40 H         123.2334  154.0529  144.8216 H       1  UNL111      0.1125
     41 H         122.1252  150.5616  148.1651 H       1  UNL111      0.0932
     42 H         124.2375  150.4560  146.9033 H       1  UNL111      0.1103
     43 H         116.1729  151.1835  145.0430 H       1  UNL111      0.0895
     44 H         115.6572  153.6426  147.8884 H       1  UNL111      0.0370
     45 H         113.9530  153.1785  147.8673 H       1  UNL111      0.0370
     46 H         114.5312  154.5209  146.8568 H       1  UNL111      0.0370
     47 H         114.0300  151.7324  144.3536 H       1  UNL111      0.0370
     48 H         113.5935  153.4059  144.7212 H       1  UNL111      0.0370
     49 H         112.9564  152.0768  145.7162 H       1  UNL111      0.0370
@<TRIPOS>UNITY_ATOM_ATTR
2 1
charge 1
@<TRIPOS>BOND
     1     1    16    1
     2     2     5    1
     3     2     9    1
     4     2    13    1
     5     3     4    1
     6     3     6    1
     7     3     8    1
     8     3    11    1
     9     4     5    1
    10     4    12    1
    11     5     7    1
    12     6     9    1
    13     7    10    1
    14     8    10   ar
    15     8    14   ar
    16    10    15   ar
    17    13    18    1
    18    14    16   ar
    19    15    17   ar
    20    16    17   ar
    21    18    19    2
    22    19    20    1
    23    19    21    1
    24     1    22    1
    25     2    23    1
    26     4    24    1
    27     5    25    1
    28     6    26    1
    29     6    27    1
    30     7    28    1
    31     7    29    1
    32     9    30    1
    33     9    31    1
    34    11    32    1
    35    11    33    1
    36    11    34    1
    37    12    35    1
    38    12    36    1
    39    12    37    1
    40    13    38    1
    41    13    39    1
    42    14    40    1
    43    15    41    1
    44    17    42    1
    45    18    43    1
    46    20    44    1
    47    20    45    1
    48    20    46    1
    49    21    47    1
    50    21    48    1
    51    21    49    1
@<TRIPOS>MOLECULE
198520
 49 51 0 0 0
SMALL
GASTEIGER

@<TRIPOS>ATOM
      1 O         114.7245  151.8475  145.3488 O.3     1  UNL111     -0.5646
      2 N         121.4436  153.0600  146.4709 N.4     1  UNL111      0.4293
      3 C         118.9638  154.4202  145.6988 C.3     1  UNL111     -0.0137
      4 C         119.8782  154.9503  146.8432 C.3     1  UNL111     -0.0368
      5 C         120.5611  153.7520  147.5167 C.3     1  UNL111     -0.0274
      6 C         119.8734  153.7161  144.6566 C.3     1  UNL111     -0.0422
      7 C         119.5394  152.8035  148.1637 C.3     1  UNL111     -0.0255
      8 C         117.9668  153.3734  146.2218 C.ar    1  UNL111     -0.0496
      9 C         120.7062  152.5819  145.2439 C.3     1  UNL111     -0.0375
     10 C         118.2769  152.5940  147.3614 C.ar    1  UNL111     -0.0622
     11 C         118.2717  155.6134  145.0015 C.3     1  UNL111     -0.0525
     12 C         119.1593  155.8394  147.8702 C.3     1  UNL111     -0.0576
     13 C         122.3436  151.9965  147.0552 C.3     1  UNL111     -0.0242
     14 C         116.7640  153.1078  145.5384 C.ar    1  UNL111     -0.0250
     15 C         117.3784  151.6085  147.8046 C.ar    1  UNL111     -0.0634
     16 C         115.8934  152.1202  145.9928 C.ar    1  UNL111      0.0342
     17 C         116.1919  151.3710  147.1186 C.ar    1  UNL111     -0.0309
     18 C         123.5561  151.7710  146.2095 C.2     1  UNL111     -0.1036
     19 C         124.6843  152.5090  146.1859 C.2     1  UNL111     -0.1100
     20 C         125.8374  152.1239  145.2912 C.3     1  UNL111     -0.0504
     21 C         124.9370  153.7393  147.0156 C.3     1  UNL111     -0.0504
     22 H         114.5779  152.4989  144.6435 H       1  UNL111      0.3342
     23 H         122.0987  153.7806  146.1408 H       1  UNL111      0.1361
     24 H         120.6625  155.5817  146.3994 H       1  UNL111      0.0569
     25 H         121.2611  154.1091  148.2824 H       1  UNL111      0.0834
     26 H         120.5548  154.4549  144.2125 H       1  UNL111      0.0505
     27 H         119.2759  153.3166  143.8266 H       1  UNL111      0.0505
     28 H         119.2383  153.2335  149.1284 H       1  UNL111      0.0609
     29 H         119.9972  151.8340  148.3878 H       1  UNL111      0.0609
     30 H         120.1056  151.7104  145.5211 H       1  UNL111      0.0740
     31 H         121.4548  152.2608  144.5118 H       1  UNL111      0.0740
     32 H         118.9924  156.4085  144.7770 H       1  UNL111      0.0316
     33 H         117.4778  156.0426  145.6227 H       1  UNL111      0.0316
     34 H         117.8195  155.3244  144.0461 H       1  UNL111      0.0316
     35 H         118.2669  155.3656  148.2891 H       1  UNL111      0.0307
     36 H         118.8508  156.7873  147.4177 H       1  UNL111      0.0307
     37 H         119.8306  156.0852  148.7004 H       1  UNL111      0.0307
     38 H         121.7624  151.0727  147.1491 H       1  UNL111      0.0839
     39 H         122.6314  152.3138  148.0632 H       1  UNL111      0.0839
     40 H         116.4994  153.6604  144.6420 H       1  UNL111      0.1125
     41 H         117.5922  151.0171  148.6935 H       1  UNL111      0.0932
     42 H         115.4986  150.6077  147.4631 H       1  UNL111      0.1103
     43 H         123.5075  150.8839  145.5763 H       1  UNL111      0.0895
     44 H         125.6256  151.2230  144.7057 H       1  UNL111      0.0370
     45 H         126.7329  151.9288  145.8902 H       1  UNL111      0.0370
     46 H         126.0571  152.9336  144.5877 H       1  UNL111      0.0370
     47 H         124.0845  154.0153  147.6416 H       1  UNL111      0.0370
     48 H         125.1540  154.5932  146.3653 H       1  UNL111      0.0370
     49 H         125.7954  153.5793  147.6761 H       1  UNL111      0.0370
@<TRIPOS>UNITY_ATOM_ATTR
2 1
charge 1
@<TRIPOS>BOND
     1     1    16    1
     2     2     5    1
     3     2     9    1
     4     2    13    1
     5     3     4    1
     6     3     6    1
     7     3     8    1
     8     3    11    1
     9     4     5    1
    10     4    12    1
    11     5     7    1
    12     6     9    1
    13     7    10    1
    14     8    10   ar
    15     8    14   ar
    16    10    15   ar
    17    13    18    1
    18    14    16   ar
    19    15    17   ar
    20    16    17   ar
    21    18    19    2
    22    19    20    1
    23    19    21    1
    24     1    22    1
    25     2    23    1
    26     4    24    1
    27     5    25    1
    28     6    26    1
    29     6    27    1
    30     7    28    1
    31     7    29    1
    32     9    30    1
    33     9    31    1
    34    11    32    1
    35    11    33    1
    36    11    34    1
    37    12    35    1
    38    12    36    1
    39    12    37    1
    40    13    38    1
    41    13    39    1
    42    14    40    1
    43    15    41    1
    44    17    42    1
    45    18    43    1
    46    20    44    1
    47    20    45    1
    48    20    46    1
    49    21    47    1
    50    21    48    1
    51    21    49    1
