@<TRIPOS>MOLECULE
10100
 55 56 0 0 0
SMALL
GASTEIGER

@<TRIPOS>ATOM
      1 O         119.9023  153.6997  145.4291 O.3     1  UNL111     -0.5059
      2 O         120.2075  155.9183  145.9534 O.2     1  UNL111     -0.3399
      3 N         120.4970  149.5674  145.2371 N.4     1  UNL111      0.4249
      4 C         120.1764  153.2082  146.7878 C.3     1  UNL111      0.0950
      5 C         119.9885  151.6327  146.6696 C.3     1  UNL111     -0.0041
      6 C         119.1191  153.8236  147.7889 C.3     1  UNL111      0.0141
      7 C         120.8197  151.0333  145.5112 C.3     1  UNL111     -0.0296
      8 C         121.6433  153.5093  147.1773 C.3     1  UNL111     -0.0247
      9 C         120.2504  150.8658  147.9762 C.3     1  UNL111     -0.0486
     10 C         117.6558  153.5862  147.4533 C.3     1  UNL111     -0.0663
     11 C         122.6435  153.6635  146.1940 C.3     1  UNL111     -0.0671
     12 C         122.0455  153.6099  148.5218 C.3     1  UNL111     -0.0671
     13 C         119.9453  155.0375  145.1525 C.2     1  UNL111      0.2169
     14 C         121.5068  148.9675  144.2900 C.3     1  UNL111     -0.0462
     15 C         119.0951  149.3374  144.7365 C.3     1  UNL111     -0.0462
     16 C         116.9612  154.4657  146.6117 C.3     1  UNL111     -0.0805
     17 C         116.9586  152.5010  148.0074 C.3     1  UNL111     -0.0805
     18 C         123.9762  153.9049  146.5390 C.3     1  UNL111     -0.0831
     19 C         123.3796  153.8494  148.8660 C.3     1  UNL111     -0.0831
     20 C         119.6177  155.2495  143.6938 C.3     1  UNL111      0.0573
     21 C         124.3441  153.9955  147.8758 C.3     1  UNL111     -0.0862
     22 C         115.6205  154.2403  146.2939 C.3     1  UNL111     -0.0857
     23 C         115.6172  152.2770  147.6905 C.3     1  UNL111     -0.0857
     24 C         114.9510  153.1421  146.8269 C.3     1  UNL111     -0.0868
     25 C         119.6470  156.7187  143.3119 C.3     1  UNL111     -0.0381
     26 H         120.5990  149.0471  146.1172 H       1  UNL111      0.1293
     27 H         118.9402  151.4743  146.3987 H       1  UNL111      0.0725
     28 H         119.2664  154.9057  147.8869 H       1  UNL111      0.0688
     29 H         119.2784  153.4469  148.8052 H       1  UNL111      0.0688
     30 H         120.6597  151.5592  144.5644 H       1  UNL111      0.0767
     31 H         121.8864  151.0563  145.7549 H       1  UNL111      0.0767
     32 H         121.3220  150.7723  148.1796 H       1  UNL111      0.0331
     33 H         119.8376  149.8532  147.9218 H       1  UNL111      0.0331
     34 H         119.7835  151.3394  148.8420 H       1  UNL111      0.0331
     35 H         122.4035  153.6201  145.1345 H       1  UNL111      0.0926
     36 H         121.3377  153.5101  149.3406 H       1  UNL111      0.0926
     37 H         121.4353  149.4869  143.3306 H       1  UNL111      0.0661
     38 H         121.2792  147.9039  144.1797 H       1  UNL111      0.0661
     39 H         122.5000  149.0880  144.7305 H       1  UNL111      0.0661
     40 H         118.9320  149.9614  143.8541 H       1  UNL111      0.0661
     41 H         118.3943  149.5851  145.5358 H       1  UNL111      0.0661
     42 H         118.9913  148.2774  144.4887 H       1  UNL111      0.0661
     43 H         117.4438  155.3583  146.2203 H       1  UNL111      0.0893
     44 H         117.4427  151.8299  148.7121 H       1  UNL111      0.0893
     45 H         124.7264  154.0420  145.7634 H       1  UNL111      0.0879
     46 H         123.6634  153.9359  149.9130 H       1  UNL111      0.0879
     47 H         118.6193  154.8437  143.5001 H       1  UNL111      0.0842
     48 H         120.3509  154.7029  143.0914 H       1  UNL111      0.0842
     49 H         125.3776  154.1979  148.1470 H       1  UNL111      0.0874
     50 H         115.0905  154.9376  145.6489 H       1  UNL111      0.0876
     51 H         115.0826  151.4414  148.1361 H       1  UNL111      0.0876
     52 H         113.9014  152.9796  146.5933 H       1  UNL111      0.0874
     53 H         118.9196  157.2914  143.8969 H       1  UNL111      0.0335
     54 H         119.4068  156.8421  142.2514 H       1  UNL111      0.0335
     55 H         120.6365  157.1520  143.4917 H       1  UNL111      0.0335
@<TRIPOS>UNITY_ATOM_ATTR
3 1
charge 1
@<TRIPOS>BOND
     1     1     4    1
     2     1    13    1
     3     2    13    2
     4     3     7    1
     5     3    14    1
     6     3    15    1
     7     4     5    1
     8     4     6    1
     9     4     8    1
    10     5     7    1
    11     5     9    1
    12     6    10    1
    13     8    11   ar
    14     8    12   ar
    15    10    16   ar
    16    10    17   ar
    17    11    18   ar
    18    12    19   ar
    19    13    20    1
    20    16    22   ar
    21    17    23   ar
    22    18    21   ar
    23    19    21   ar
    24    20    25    1
    25    22    24   ar
    26    23    24   ar
    27     3    26    1
    28     5    27    1
    29     6    28    1
    30     6    29    1
    31     7    30    1
    32     7    31    1
    33     9    32    1
    34     9    33    1
    35     9    34    1
    36    11    35    1
    37    12    36    1
    38    14    37    1
    39    14    38    1
    40    14    39    1
    41    15    40    1
    42    15    41    1
    43    15    42    1
    44    16    43    1
    45    17    44    1
    46    18    45    1
    47    19    46    1
    48    20    47    1
    49    20    48    1
    50    21    49    1
    51    22    50    1
    52    23    51    1
    53    24    52    1
    54    25    53    1
    55    25    54    1
    56    25    55    1
@<TRIPOS>MOLECULE
15330
 55 56 0 0 0
SMALL
GASTEIGER

@<TRIPOS>ATOM
      1 O         119.8930  153.6970  147.3847 O.3     1  UNL111     -0.5059
      2 O         120.1039  155.9251  146.8546 O.2     1  UNL111     -0.3399
      3 N         120.6588  149.5953  147.5795 N.4     1  UNL111      0.4249
      4 C         120.1709  153.2141  146.0236 C.3     1  UNL111      0.0950
      5 C         120.0466  151.6328  146.1480 C.3     1  UNL111     -0.0041
      6 C         119.0797  153.7861  145.0335 C.3     1  UNL111      0.0141
      7 C         120.9224  151.0704  147.2922 C.3     1  UNL111     -0.0296
      8 C         121.6203  153.5711  145.6159 C.3     1  UNL111     -0.0247
      9 C         120.3155  150.8725  144.8390 C.3     1  UNL111     -0.0486
     10 C         117.6300  153.5012  145.3897 C.3     1  UNL111     -0.0663
     11 C         122.6241  153.7729  146.5867 C.3     1  UNL111     -0.0671
     12 C         122.0033  153.6768  144.2662 C.3     1  UNL111     -0.0671
     13 C         119.8846  155.0358  147.6590 C.2     1  UNL111      0.2169
     14 C         119.2814  149.3203  148.1235 C.3     1  UNL111     -0.0462
     15 C         121.7168  149.0334  148.4969 C.3     1  UNL111     -0.0462
     16 C         116.9656  152.3837  144.8601 C.3     1  UNL111     -0.0805
     17 C         116.9137  154.3688  146.2255 C.3     1  UNL111     -0.0805
     18 C         123.9422  154.0647  146.2249 C.3     1  UNL111     -0.0831
     19 C         123.3229  153.9666  143.9052 C.3     1  UNL111     -0.0831
     20 C         119.5606  155.2369  149.1201 C.3     1  UNL111      0.0573
     21 C         124.2915  154.1591  144.8834 C.3     1  UNL111     -0.0862
     22 C         115.6364  152.1179  145.1954 C.3     1  UNL111     -0.0857
     23 C         115.5852  154.1017  146.5617 C.3     1  UNL111     -0.0857
     24 C         114.9492  152.9725  146.0530 C.3     1  UNL111     -0.0868
     25 C         119.5492  156.7060  149.5034 C.3     1  UNL111     -0.0381
     26 H         120.7514  149.0753  146.6983 H       1  UNL111      0.1293
     27 H         119.0101  151.4344  146.4376 H       1  UNL111      0.0725
     28 H         119.2385  153.4098  144.0169 H       1  UNL111      0.0688
     29 H         119.1890  154.8721  144.9278 H       1  UNL111      0.0688
     30 H         121.9823  151.1310  147.0261 H       1  UNL111      0.0767
     31 H         120.7633  151.5951  148.2398 H       1  UNL111      0.0767
     32 H         121.3863  150.8197  144.6173 H       1  UNL111      0.0331
     33 H         119.8160  151.3245  143.9801 H       1  UNL111      0.0331
     34 H         119.9432  149.8448  144.9032 H       1  UNL111      0.0331
     35 H         122.3978  153.7280  147.6491 H       1  UNL111      0.0926
     36 H         121.2910  153.5420  143.4563 H       1  UNL111      0.0926
     37 H         119.1261  149.9385  149.0114 H       1  UNL111      0.0661
     38 H         119.2197  148.2574  148.3732 H       1  UNL111      0.0661
     39 H         118.5482  149.5456  147.3470 H       1  UNL111      0.0661
     40 H         121.6587  149.5551  149.4558 H       1  UNL111      0.0661
     41 H         122.6911  149.1836  148.0246 H       1  UNL111      0.0661
     42 H         121.5276  147.9635  148.6186 H       1  UNL111      0.0661
     43 H         117.4651  151.7193  144.1600 H       1  UNL111      0.0893
     44 H         117.3687  155.2839  146.5978 H       1  UNL111      0.0893
     45 H         124.6947  154.2379  146.9909 H       1  UNL111      0.0879
     46 H         123.5916  154.0558  142.8544 H       1  UNL111      0.0879
     47 H         120.3136  154.7119  149.7172 H       1  UNL111      0.0842
     48 H         118.5759  154.8013  149.3198 H       1  UNL111      0.0842
     49 H         125.3131  154.4005  144.5991 H       1  UNL111      0.0874
     50 H         115.1267  151.2573  144.7686 H       1  UNL111      0.0876
     51 H         115.0379  154.7901  147.2017 H       1  UNL111      0.0876
     52 H         113.9085  152.7770  146.3007 H       1  UNL111      0.0874
     53 H         120.5242  157.1683  149.3170 H       1  UNL111      0.0335
     54 H         119.3131  156.8212  150.5657 H       1  UNL111      0.0335
     55 H         118.8010  157.2575  148.9243 H       1  UNL111      0.0335
@<TRIPOS>UNITY_ATOM_ATTR
3 1
charge 1
@<TRIPOS>BOND
     1     1     4    1
     2     1    13    1
     3     2    13    2
     4     3     7    1
     5     3    14    1
     6     3    15    1
     7     4     5    1
     8     4     6    1
     9     4     8    1
    10     5     7    1
    11     5     9    1
    12     6    10    1
    13     8    11   ar
    14     8    12   ar
    15    10    16   ar
    16    10    17   ar
    17    11    18   ar
    18    12    19   ar
    19    13    20    1
    20    16    22   ar
    21    17    23   ar
    22    18    21   ar
    23    19    21   ar
    24    20    25    1
    25    22    24   ar
    26    23    24   ar
    27     3    26    1
    28     5    27    1
    29     6    28    1
    30     6    29    1
    31     7    30    1
    32     7    31    1
    33     9    32    1
    34     9    33    1
    35     9    34    1
    36    11    35    1
    37    12    36    1
    38    14    37    1
    39    14    38    1
    40    14    39    1
    41    15    40    1
    42    15    41    1
    43    15    42    1
    44    16    43    1
    45    17    44    1
    46    18    45    1
    47    19    46    1
    48    20    47    1
    49    20    48    1
    50    21    49    1
    51    22    50    1
    52    23    51    1
    53    24    52    1
    54    25    53    1
    55    25    54    1
    56    25    55    1
@<TRIPOS>MOLECULE
56845997
 31 32 0 0 0
SMALL
GASTEIGER

@<TRIPOS>ATOM
      1 O         120.1849  153.0239  147.7957 O.3     1  UNL111     -0.4930
      2 O         119.8565  150.7777  147.3656 O.2     1  UNL111     -0.3323
      3 N         120.8358  156.5986  148.5636 N.4     1  UNL111      0.4655
      4 C         120.2297  153.3639  146.3792 C.3     1  UNL111      0.1350
      5 C         120.3560  154.9000  146.2933 C.3     1  UNL111      0.0844
      6 C         118.9263  153.0117  145.7732 C.3     1  UNL111      0.1000
      7 C         120.5963  155.6957  147.4483 C.3     1  UNL111      0.0780
      8 C         121.4668  152.7345  145.7220 C.3     1  UNL111     -0.0168
      9 C         120.2596  155.7696  145.0460 C.3     1  UNL111      0.0441
     10 C         117.6704  152.6724  145.1873 C.2     1  UNL111     -0.0056
     11 C         122.6884  152.6488  146.4256 C.3     1  UNL111     -0.0661
     12 C         121.4432  152.2787  144.3905 C.3     1  UNL111     -0.0661
     13 C         119.9947  151.7132  148.1335 C.2     1  UNL111      0.2503
     14 C         122.1090  156.2986  149.2098 C.3     1  UNL111      0.1082
     15 C         119.7409  156.5385  149.5258 C.3     1  UNL111      0.1082
     16 C         116.9479  151.5858  145.6731 C.2     1  UNL111     -0.0060
     17 C         117.1702  153.4317  144.1326 C.2     1  UNL111     -0.0060
     18 C         123.8283  152.1099  145.8246 C.3     1  UNL111     -0.0831
     19 C         122.5867  151.7422  143.7943 C.3     1  UNL111     -0.0831
     20 C         119.9814  151.5392  149.5689 C.3     1  UNL111      0.1775
     21 C         123.7762  151.6568  144.5106 C.3     1  UNL111     -0.0862
     22 C         115.7212  151.2570  145.1014 C.2     1  UNL111     -0.0020
     23 C         115.9431  153.1026  143.5619 C.2     1  UNL111     -0.0020
     24 C         115.2191  152.0155  144.0463 C.2     1  UNL111     -0.0007
     25 C         119.9954  151.4969  151.1062 C.3     1  UNL111      0.0658
     26 H         120.8829  157.5606  148.1919 H       1  UNL111      0.1835
     27 H         122.7792  152.9830  147.4565 H       1  UNL111      0.0927
     28 H         120.5380  152.3276  143.7865 H       1  UNL111      0.0927
     29 H         124.7610  152.0334  146.3804 H       1  UNL111      0.0879
     30 H         122.5479  151.3853  142.7666 H       1  UNL111      0.0879
     31 H         124.6618  151.2311  144.0431 H       1  UNL111      0.0874
@<TRIPOS>UNITY_ATOM_ATTR
3 1
charge 1
@<TRIPOS>BOND
     1     1     4    1
     2     1    13    1
     3     2    13    2
     4     3     7    1
     5     3    14    1
     6     3    15    1
     7     4     5    1
     8     4     6    1
     9     4     8    1
    10     5     7    1
    11     5     9    1
    12     6    10    1
    13     8    11   ar
    14     8    12   ar
    15    10    16    2
    16    10    17    1
    17    11    18   ar
    18    12    19   ar
    19    13    20    1
    20    16    22    1
    21    17    23    2
    22    18    21   ar
    23    19    21   ar
    24    20    25    1
    25    22    24    2
    26    23    24    1
    27     3    26    1
    28    11    27    1
    29    12    28    1
    30    18    29    1
    31    19    30    1
    32    21    31    1
@<TRIPOS>MOLECULE
129318235
 37 38 0 0 0
SMALL
GASTEIGER

@<TRIPOS>ATOM
      1 O         120.2562  153.2268  147.6438 O.3     1  UNL111     -0.4930
      2 O         119.8925  150.9502  147.4807 O.2     1  UNL111     -0.3323
      3 N         120.5291  156.9497  148.0751 N.4     1  UNL111      0.4338
      4 C         120.2938  153.4177  146.1986 C.3     1  UNL111      0.1346
      5 C         120.4358  154.9362  145.9544 C.3     1  UNL111      0.0789
      6 C         118.9791  153.0225  145.6433 C.3     1  UNL111      0.0999
      7 C         120.4823  155.8768  147.0413 C.3     1  UNL111      0.0439
      8 C         121.5145  152.6935  145.6114 C.3     1  UNL111     -0.0168
      9 C         120.4797  155.6459  144.6054 C.3     1  UNL111      0.0436
     10 C         117.7140  152.6433  145.1043 C.2     1  UNL111     -0.0056
     11 C         121.4617  152.0410  144.3656 C.3     1  UNL111     -0.0661
     12 C         122.7500  152.7078  146.2952 C.3     1  UNL111     -0.0661
     13 C         120.0541  151.9690  148.1281 C.2     1  UNL111      0.2503
     14 C         119.3866  156.8523  149.0389 C.3     1  UNL111     -0.0384
     15 C         121.8643  157.0159  148.7512 C.3     1  UNL111     -0.0384
     16 C         117.0598  151.5159  145.5937 C.2     1  UNL111     -0.0060
     17 C         117.1373  153.4037  144.0902 C.2     1  UNL111     -0.0060
     18 C         122.5909  151.4124  143.8356 C.3     1  UNL111     -0.0831
     19 C         123.8754  152.0758  145.7616 C.3     1  UNL111     -0.0831
     20 C         120.0414  151.9747  149.5739 C.3     1  UNL111      0.1775
     21 C         123.7944  151.4280  144.5333 C.3     1  UNL111     -0.0862
     22 C         115.8242  151.1475  145.0670 C.2     1  UNL111     -0.0020
     23 C         115.9016  153.0347  143.5642 C.2     1  UNL111     -0.0020
     24 C         115.2455  151.9070  144.0526 C.2     1  UNL111     -0.0007
     25 C         120.0480  152.1552  151.1027 C.3     1  UNL111      0.0658
     26 H         120.4125  157.8307  147.5480 H       1  UNL111      0.1421
     27 H         120.5452  152.0073  143.7783 H       1  UNL111      0.0927
     28 H         122.8605  153.2028  147.2569 H       1  UNL111      0.0927
     29 H         119.4785  155.9177  149.5998 H       1  UNL111      0.0679
     30 H         118.4543  156.8763  148.4675 H       1  UNL111      0.0679
     31 H         119.4343  157.7151  149.7086 H       1  UNL111      0.0679
     32 H         122.0243  156.0859  149.3044 H       1  UNL111      0.0679
     33 H         121.8589  157.8751  149.4273 H       1  UNL111      0.0679
     34 H         122.6309  157.1520  147.9830 H       1  UNL111      0.0679
     35 H         122.5302  150.9075  142.8732 H       1  UNL111      0.0879
     36 H         124.8199  152.0829  146.3018 H       1  UNL111      0.0879
     37 H         124.6693  150.9332  144.1169 H       1  UNL111      0.0874
@<TRIPOS>UNITY_ATOM_ATTR
3 1
charge 1
@<TRIPOS>BOND
     1     1     4    1
     2     1    13    1
     3     2    13    2
     4     3     7    1
     5     3    14    1
     6     3    15    1
     7     4     5    1
     8     4     6    1
     9     4     8    1
    10     5     7    1
    11     5     9    1
    12     6    10    1
    13     8    11   ar
    14     8    12   ar
    15    10    16    2
    16    10    17    1
    17    11    18   ar
    18    12    19   ar
    19    13    20    1
    20    16    22    1
    21    17    23    2
    22    18    21   ar
    23    19    21   ar
    24    20    25    1
    25    22    24    2
    26    23    24    1
    27     3    26    1
    28    11    27    1
    29    12    28    1
    30    14    29    1
    31    14    30    1
    32    14    31    1
    33    15    32    1
    34    15    33    1
    35    15    34    1
    36    18    35    1
    37    19    36    1
    38    21    37    1
@<TRIPOS>MOLECULE
6093219
 55 56 0 0 0
SMALL
GASTEIGER

@<TRIPOS>ATOM
      1 O         120.3746  151.8152  145.5398 O.3     1  UNL111     -0.5059
      2 O         121.3260  150.4646  147.1379 O.2     1  UNL111     -0.3399
      3 N         118.7729  156.5379  145.4673 N.4     1  UNL111      0.4249
      4 C         120.2901  152.9917  146.4094 C.3     1  UNL111      0.0950
      5 C         119.6339  154.1289  145.5029 C.3     1  UNL111     -0.0041
      6 C         119.3396  152.6674  147.6335 C.3     1  UNL111      0.0141
      7 C         119.5483  155.4801  146.2410 C.3     1  UNL111     -0.0296
      8 C         121.7189  153.4298  146.8177 C.3     1  UNL111     -0.0247
      9 C         120.2933  154.2979  144.1188 C.3     1  UNL111     -0.0486
     10 C         117.8704  152.4289  147.3232 C.3     1  UNL111     -0.0663
     11 C         122.7809  153.3381  145.8933 C.3     1  UNL111     -0.0671
     12 C         122.0258  153.9382  148.0933 C.3     1  UNL111     -0.0671
     13 C         120.9231  150.6528  146.0024 C.2     1  UNL111      0.2169
     14 C         118.9705  157.9037  146.0772 C.3     1  UNL111     -0.0462
     15 C         117.3066  156.2279  145.3142 C.3     1  UNL111     -0.0462
     16 C         116.8937  153.3197  147.8000 C.3     1  UNL111     -0.0805
     17 C         117.4509  151.3058  146.5993 C.3     1  UNL111     -0.0805
     18 C         124.0745  153.7550  146.2170 C.3     1  UNL111     -0.0831
     19 C         123.3221  154.3547  148.4175 C.3     1  UNL111     -0.0831
     20 C         120.9485  149.6405  144.8820 C.3     1  UNL111      0.0573
     21 C         124.3437  154.2684  147.4789 C.3     1  UNL111     -0.0862
     22 C         115.5410  153.1135  147.5209 C.3     1  UNL111     -0.0857
     23 C         116.0982  151.1008  146.3204 C.3     1  UNL111     -0.0857
     24 C         115.1447  152.0077  146.7743 C.3     1  UNL111     -0.0868
     25 C         121.4410  148.2835  145.3515 C.3     1  UNL111     -0.0381
     26 H         119.1715  156.5979  144.5220 H       1  UNL111      0.1293
     27 H         118.6220  153.7842  145.2649 H       1  UNL111      0.0725
     28 H         119.3707  153.4934  148.3517 H       1  UNL111      0.0688
     29 H         119.6954  151.7980  148.1966 H       1  UNL111      0.0688
     30 H         119.0614  155.3999  147.2162 H       1  UNL111      0.0767
     31 H         120.5514  155.8953  146.3860 H       1  UNL111      0.0767
     32 H         121.2297  154.8603  144.1788 H       1  UNL111      0.0331
     33 H         119.6306  154.8448  143.4395 H       1  UNL111      0.0331
     34 H         120.4922  153.3359  143.6375 H       1  UNL111      0.0331
     35 H         122.6227  152.9178  144.9016 H       1  UNL111      0.0926
     36 H         121.2869  154.0058  148.8857 H       1  UNL111      0.0926
     37 H         118.5607  157.8946  147.0907 H       1  UNL111      0.0661
     38 H         118.4530  158.6343  145.4498 H       1  UNL111      0.0661
     39 H         120.0421  158.1199  146.0874 H       1  UNL111      0.0661
     40 H         116.8684  156.1157  146.3087 H       1  UNL111      0.0661
     41 H         117.1999  155.3160  144.7247 H       1  UNL111      0.0661
     42 H         116.8401  157.0581  144.7766 H       1  UNL111      0.0661
     43 H         117.1694  154.1672  148.4230 H       1  UNL111      0.0893
     44 H         118.1624  150.5570  146.2641 H       1  UNL111      0.0893
     45 H         124.8766  153.6596  145.4884 H       1  UNL111      0.0879
     46 H         123.5403  154.7266  149.4166 H       1  UNL111      0.0879
     47 H         121.6067  150.0167  144.0918 H       1  UNL111      0.0842
     48 H         119.9336  149.5365  144.4837 H       1  UNL111      0.0842
     49 H         125.3537  154.5762  147.7397 H       1  UNL111      0.0874
     50 H         114.7895  153.7959  147.9111 H       1  UNL111      0.0876
     51 H         115.7860  150.2168  145.7681 H       1  UNL111      0.0876
     52 H         114.0902  151.8315  146.5734 H       1  UNL111      0.0874
     53 H         122.4606  148.3498  145.7454 H       1  UNL111      0.0335
     54 H         121.4403  147.5699  144.5219 H       1  UNL111      0.0335
     55 H         120.8002  147.8865  146.1459 H       1  UNL111      0.0335
@<TRIPOS>UNITY_ATOM_ATTR
3 1
charge 1
@<TRIPOS>BOND
     1     1     4    1
     2     1    13    1
     3     2    13    2
     4     3     7    1
     5     3    14    1
     6     3    15    1
     7     4     5    1
     8     4     6    1
     9     4     8    1
    10     5     7    1
    11     5     9    1
    12     6    10    1
    13     8    11   ar
    14     8    12   ar
    15    10    16   ar
    16    10    17   ar
    17    11    18   ar
    18    12    19   ar
    19    13    20    1
    20    16    22   ar
    21    17    23   ar
    22    18    21   ar
    23    19    21   ar
    24    20    25    1
    25    22    24   ar
    26    23    24   ar
    27     3    26    1
    28     5    27    1
    29     6    28    1
    30     6    29    1
    31     7    30    1
    32     7    31    1
    33     9    32    1
    34     9    33    1
    35     9    34    1
    36    11    35    1
    37    12    36    1
    38    14    37    1
    39    14    38    1
    40    14    39    1
    41    15    40    1
    42    15    41    1
    43    15    42    1
    44    16    43    1
    45    17    44    1
    46    18    45    1
    47    19    46    1
    48    20    47    1
    49    20    48    1
    50    21    49    1
    51    22    50    1
    52    23    51    1
    53    24    52    1
    54    25    53    1
    55    25    54    1
    56    25    55    1
@<TRIPOS>MOLECULE
91748223
 44 45 0 0 0
SMALL
GASTEIGER

@<TRIPOS>ATOM
      1 N         123.3841  154.8227  146.4514 N.4     1  UNL111      0.4260
      2 C         120.0241  153.7111  146.2866 C.2     1  UNL111     -0.0583
      3 C         120.9866  154.2859  147.0562 C.2     1  UNL111     -0.0882
      4 C         120.2242  152.5939  145.2668 C.3     1  UNL111     -0.0079
      5 C         122.4253  153.8290  147.0692 C.3     1  UNL111     -0.0222
      6 C         118.6293  154.2051  146.3416 C.ar    1  UNL111     -0.0518
      7 C         119.9167  151.2119  145.8005 C.ar    1  UNL111     -0.0728
      8 C         120.7133  155.4034  148.0472 C.3     1  UNL111     -0.0415
      9 C         118.1566  155.0985  145.3718 C.ar    1  UNL111     -0.0741
     10 C         117.7715  153.7892  147.3691 C.ar    1  UNL111     -0.0741
     11 C         124.8134  154.4591  146.7381 C.3     1  UNL111     -0.0451
     12 C         123.1540  155.0327  144.9821 C.3     1  UNL111     -0.0451
     13 C         120.9367  150.3652  146.2582 C.ar    1  UNL111     -0.0814
     14 C         118.5922  150.7495  145.8414 C.ar    1  UNL111     -0.0814
     15 C         116.8421  155.5656  145.4285 C.ar    1  UNL111     -0.0840
     16 C         116.4580  154.2576  147.4222 C.ar    1  UNL111     -0.0840
     17 C         120.6367  149.0956  146.7575 C.ar    1  UNL111     -0.0858
     18 C         118.2940  149.4817  146.3428 C.ar    1  UNL111     -0.0858
     19 C         115.9947  155.1452  146.4526 C.ar    1  UNL111     -0.0862
     20 C         119.3160  148.6561  146.8030 C.ar    1  UNL111     -0.0868
     21 H         123.2133  155.7246  146.9103 H       1  UNL111      0.1312
     22 H         121.2472  152.6077  144.8731 H       1  UNL111      0.0606
     23 H         119.6065  152.7738  144.3758 H       1  UNL111      0.0606
     24 H         122.7446  153.6826  148.1085 H       1  UNL111      0.0849
     25 H         122.5894  152.8803  146.5543 H       1  UNL111      0.0849
     26 H         119.6722  155.7303  148.0857 H       1  UNL111      0.0406
     27 H         121.3066  156.2881  147.7959 H       1  UNL111      0.0406
     28 H         120.9865  155.0808  149.0577 H       1  UNL111      0.0406
     29 H         118.8005  155.4368  144.5647 H       1  UNL111      0.0918
     30 H         118.1160  153.0904  148.1284 H       1  UNL111      0.0918
     31 H         125.0295  153.4951  146.2697 H       1  UNL111      0.0665
     32 H         124.9411  154.4063  147.8226 H       1  UNL111      0.0665
     33 H         125.4533  155.2456  146.3294 H       1  UNL111      0.0665
     34 H         123.2923  154.0791  144.4660 H       1  UNL111      0.0665
     35 H         123.8775  155.7725  144.6286 H       1  UNL111      0.0665
     36 H         122.1427  155.4193  144.8367 H       1  UNL111      0.0665
     37 H         121.9777  150.6678  146.2160 H       1  UNL111      0.0893
     38 H         117.7766  151.3737  145.4798 H       1  UNL111      0.0893
     39 H         116.4745  156.2561  144.6729 H       1  UNL111      0.0879
     40 H         115.7939  153.9276  148.2176 H       1  UNL111      0.0879
     41 H         121.4327  148.4411  147.1045 H       1  UNL111      0.0876
     42 H         117.2630  149.1367  146.3696 H       1  UNL111      0.0876
     43 H         114.9698  155.5076  146.4938 H       1  UNL111      0.0874
     44 H         119.0826  147.6663  147.1882 H       1  UNL111      0.0874
@<TRIPOS>UNITY_ATOM_ATTR
1 1
charge 1
@<TRIPOS>BOND
     1     1     5    1
     2     1    11    1
     3     1    12    1
     4     2     3    2
     5     2     4    1
     6     2     6    1
     7     3     5    1
     8     3     8    1
     9     4     7    1
    10     6     9   ar
    11     6    10   ar
    12     7    13   ar
    13     7    14   ar
    14     9    15   ar
    15    10    16   ar
    16    13    17   ar
    17    14    18   ar
    18    15    19   ar
    19    16    19   ar
    20    17    20   ar
    21    18    20   ar
    22     1    21    1
    23     4    22    1
    24     4    23    1
    25     5    24    1
    26     5    25    1
    27     8    26    1
    28     8    27    1
    29     8    28    1
    30     9    29    1
    31    10    30    1
    32    11    31    1
    33    11    32    1
    34    11    33    1
    35    12    34    1
    36    12    35    1
    37    12    36    1
    38    13    37    1
    39    14    38    1
    40    15    39    1
    41    16    40    1
    42    17    41    1
    43    18    42    1
    44    19    43    1
    45    20    44    1
@<TRIPOS>MOLECULE
157010651
 55 56 0 0 0
SMALL
GASTEIGER

@<TRIPOS>ATOM
      1 O         119.9655  152.6105  147.3329 O.3     1  UNL1111    -0.5059
      2 O         119.3422  157.2872  146.6314 O.co2   1  UNL1111    -0.7595
      3 O         120.4372  150.3683  147.0965 O.2     1  UNL1111    -0.3399
      4 N         119.8903  156.4736  147.5839 N.3     1  UNL1111     0.3995
      5 C         119.9527  154.5227  145.8603 C.3     1  UNL1111    -0.0068
      6 C         120.2506  152.9695  145.9354 C.3     1  UNL1111     0.0949
      7 C         120.7002  155.3385  146.9467 C.3     1  UNL1111    -0.0482
      8 C         119.2779  152.1600  144.9891 C.3     1  UNL1111     0.0141
      9 C         121.7458  152.7155  145.6119 C.3     1  UNL1111    -0.0247
     10 C         120.2123  155.1447  144.4758 C.3     1  UNL1111    -0.0487
     11 C         117.7998  152.1609  145.3416 C.3     1  UNL1111    -0.0663
     12 C         120.8129  157.3001  148.4427 C.3     1  UNL1111    -0.0647
     13 C         118.7948  155.9196  148.4604 C.3     1  UNL1111    -0.0647
     14 C         122.7328  152.7722  146.6165 C.3     1  UNL1111    -0.0671
     15 C         122.1814  152.4460  144.3007 C.3     1  UNL1111    -0.0671
     16 C         120.0836  151.3249  147.7669 C.2     1  UNL1111     0.2169
     17 C         117.2379  151.0923  146.0562 C.3     1  UNL1111    -0.0805
     18 C         116.9578  153.2037  144.9300 C.3     1  UNL1111    -0.0805
     19 C         124.0846  152.5663  146.3259 C.3     1  UNL1111    -0.0831
     20 C         123.5338  152.2410  144.0096 C.3     1  UNL1111    -0.0831
     21 C         119.7031  151.2685  149.2275 C.3     1  UNL1111     0.0573
     22 C         124.4849  152.3012  145.0217 C.3     1  UNL1111    -0.0862
     23 C         115.8810  151.0872  146.3856 C.3     1  UNL1111    -0.0857
     24 C         115.6012  153.1995  145.2612 C.3     1  UNL1111    -0.0857
     25 C         115.0639  152.1440  145.9933 C.3     1  UNL1111    -0.0868
     26 C         119.8286  149.8658  149.7952 C.3     1  UNL1111    -0.0381
     27 H         118.8862  154.6450  146.0572 H       1  UNL1111     0.0723
     28 H         121.0076  154.7320  147.8028 H       1  UNL1111     0.0734
     29 H         121.5945  155.8145  146.5266 H       1  UNL1111     0.0734
     30 H         119.6017  151.1121  144.9382 H       1  UNL1111     0.0688
     31 H         119.3611  152.5055  143.9524 H       1  UNL1111     0.0688
     32 H         121.2789  155.1642  144.2321 H       1  UNL1111     0.0330
     33 H         119.8581  156.1791  144.4379 H       1  UNL1111     0.0330
     34 H         119.6906  154.6106  143.6785 H       1  UNL1111     0.0330
     35 H         121.5869  157.7165  147.7921 H       1  UNL1111     0.0628
     36 H         121.2421  156.6485  149.2079 H       1  UNL1111     0.0628
     37 H         120.2206  158.1035  148.8895 H       1  UNL1111     0.0628
     38 H         118.0760  155.3917  147.8322 H       1  UNL1111     0.0628
     39 H         118.3046  156.7677  148.9471 H       1  UNL1111     0.0628
     40 H         119.2495  155.2524  149.1966 H       1  UNL1111     0.0628
     41 H         122.4655  152.9658  147.6517 H       1  UNL1111     0.0926
     42 H         121.4815  152.3982  143.4707 H       1  UNL1111     0.0926
     43 H         117.8506  150.2419  146.3488 H       1  UNL1111     0.0893
     44 H         117.3460  154.0341  144.3442 H       1  UNL1111     0.0893
     45 H         124.8240  152.6071  147.1215 H       1  UNL1111     0.0879
     46 H         123.8417  152.0332  142.9878 H       1  UNL1111     0.0879
     47 H         118.6679  151.6107  149.3293 H       1  UNL1111     0.0842
     48 H         120.3614  151.9447  149.7833 H       1  UNL1111     0.0842
     49 H         125.5348  152.1377  144.7942 H       1  UNL1111     0.0874
     50 H         115.4605  150.2518  146.9392 H       1  UNL1111     0.0876
     51 H         114.9642  154.0202  144.9411 H       1  UNL1111     0.0876
     52 H         114.0070  152.1396  146.2455 H       1  UNL1111     0.0874
     53 H         119.1761  149.1662  149.2622 H       1  UNL1111     0.0335
     54 H         119.5496  149.8561  150.8533 H       1  UNL1111     0.0335
     55 H         120.8562  149.4973  149.7086 H       1  UNL1111     0.0335
@<TRIPOS>UNITY_ATOM_ATTR
2 1
charge -1
4 1
charge 1
@<TRIPOS>BOND
     1     1     6    1
     2     1    16    1
     3     2     4    1
     4     3    16    2
     5     4     7    1
     6     4    12    1
     7     4    13    1
     8     5     6    1
     9     5     7    1
    10     5    10    1
    11     6     8    1
    12     6     9    1
    13     8    11    1
    14     9    14   ar
    15     9    15   ar
    16    11    17   ar
    17    11    18   ar
    18    14    19   ar
    19    15    20   ar
    20    16    21    1
    21    17    23   ar
    22    18    24   ar
    23    19    22   ar
    24    20    22   ar
    25    21    26    1
    26    23    25   ar
    27    24    25   ar
    28     5    27    1
    29     7    28    1
    30     7    29    1
    31     8    30    1
    32     8    31    1
    33    10    32    1
    34    10    33    1
    35    10    34    1
    36    12    35    1
    37    12    36    1
    38    12    37    1
    39    13    38    1
    40    13    39    1
    41    13    40    1
    42    14    41    1
    43    15    42    1
    44    17    43    1
    45    18    44    1
    46    19    45    1
    47    20    46    1
    48    21    47    1
    49    21    48    1
    50    22    49    1
    51    23    50    1
    52    24    51    1
    53    25    52    1
    54    26    53    1
    55    26    54    1
    56    26    55    1
@<TRIPOS>MOLECULE
200742
 55 56 0 0 0
SMALL
GASTEIGER

@<TRIPOS>ATOM
      1 O         119.8930  153.6969  147.3846 O.3     1  UNL111     -0.5059
      2 O         120.1039  155.9251  146.8547 O.2     1  UNL111     -0.3399
      3 N         120.6588  149.5953  147.5795 N.4     1  UNL111      0.4249
      4 C         120.1710  153.2140  146.0236 C.3     1  UNL111      0.0950
      5 C         120.0466  151.6328  146.1480 C.3     1  UNL111     -0.0041
      6 C         119.0797  153.7861  145.0335 C.3     1  UNL111      0.0141
      7 C         120.9225  151.0704  147.2922 C.3     1  UNL111     -0.0296
      8 C         121.6203  153.5711  145.6159 C.3     1  UNL111     -0.0247
      9 C         120.3155  150.8724  144.8390 C.3     1  UNL111     -0.0486
     10 C         117.6301  153.5012  145.3897 C.3     1  UNL111     -0.0663
     11 C         122.6242  153.7729  146.5867 C.3     1  UNL111     -0.0671
     12 C         122.0033  153.6767  144.2662 C.3     1  UNL111     -0.0671
     13 C         119.8846  155.0357  147.6590 C.2     1  UNL111      0.2169
     14 C         119.2815  149.3204  148.1236 C.3     1  UNL111     -0.0462
     15 C         121.7168  149.0333  148.4968 C.3     1  UNL111     -0.0462
     16 C         116.9656  152.3837  144.8602 C.3     1  UNL111     -0.0805
     17 C         116.9138  154.3690  146.2254 C.3     1  UNL111     -0.0805
     18 C         123.9422  154.0646  146.2249 C.3     1  UNL111     -0.0831
     19 C         123.3230  153.9665  143.9052 C.3     1  UNL111     -0.0831
     20 C         119.5605  155.2368  149.1201 C.3     1  UNL111      0.0573
     21 C         124.2916  154.1591  144.8834 C.3     1  UNL111     -0.0862
     22 C         115.6364  152.1179  145.1955 C.3     1  UNL111     -0.0857
     23 C         115.5852  154.1019  146.5616 C.3     1  UNL111     -0.0857
     24 C         114.9492  152.9727  146.0530 C.3     1  UNL111     -0.0868
     25 C         119.5489  156.7059  149.5034 C.3     1  UNL111     -0.0381
     26 H         120.7513  149.0752  146.6983 H       1  UNL111      0.1293
     27 H         119.0101  151.4343  146.4376 H       1  UNL111      0.0725
     28 H         119.2386  153.4098  144.0169 H       1  UNL111      0.0688
     29 H         119.1890  154.8721  144.9278 H       1  UNL111      0.0688
     30 H         121.9824  151.1310  147.0260 H       1  UNL111      0.0767
     31 H         120.7634  151.5951  148.2397 H       1  UNL111      0.0767
     32 H         121.3863  150.8197  144.6172 H       1  UNL111      0.0331
     33 H         119.8160  151.3244  143.9800 H       1  UNL111      0.0331
     34 H         119.9432  149.8448  144.9032 H       1  UNL111      0.0331
     35 H         122.3978  153.7280  147.6491 H       1  UNL111      0.0926
     36 H         121.2910  153.5420  143.4563 H       1  UNL111      0.0926
     37 H         119.1263  149.9386  149.0115 H       1  UNL111      0.0661
     38 H         119.2197  148.2575  148.3734 H       1  UNL111      0.0661
     39 H         118.5481  149.5457  147.3472 H       1  UNL111      0.0661
     40 H         121.6589  149.5551  149.4557 H       1  UNL111      0.0661
     41 H         122.6912  149.1835  148.0244 H       1  UNL111      0.0661
     42 H         121.5276  147.9635  148.6185 H       1  UNL111      0.0661
     43 H         117.4651  151.7193  144.1601 H       1  UNL111      0.0893
     44 H         117.3688  155.2840  146.5977 H       1  UNL111      0.0893
     45 H         124.6947  154.2379  146.9909 H       1  UNL111      0.0879
     46 H         123.5916  154.0558  142.8544 H       1  UNL111      0.0879
     47 H         120.3137  154.7120  149.7172 H       1  UNL111      0.0842
     48 H         118.5760  154.8011  149.3198 H       1  UNL111      0.0842
     49 H         125.3131  154.4004  144.5991 H       1  UNL111      0.0874
     50 H         115.1267  151.2573  144.7688 H       1  UNL111      0.0876
     51 H         115.0379  154.7904  147.2017 H       1  UNL111      0.0876
     52 H         113.9085  152.7772  146.3007 H       1  UNL111      0.0874
     53 H         120.5238  157.1684  149.3170 H       1  UNL111      0.0335
     54 H         119.3128  156.8211  150.5657 H       1  UNL111      0.0335
     55 H         118.8007  157.2573  148.9243 H       1  UNL111      0.0335
@<TRIPOS>UNITY_ATOM_ATTR
3 1
charge 1
@<TRIPOS>BOND
     1     1     4    1
     2     1    13    1
     3     2    13    2
     4     3     7    1
     5     3    14    1
     6     3    15    1
     7     4     5    1
     8     4     6    1
     9     4     8    1
    10     5     7    1
    11     5     9    1
    12     6    10    1
    13     8    11   ar
    14     8    12   ar
    15    10    16   ar
    16    10    17   ar
    17    11    18   ar
    18    12    19   ar
    19    13    20    1
    20    16    22   ar
    21    17    23   ar
    22    18    21   ar
    23    19    21   ar
    24    20    25    1
    25    22    24   ar
    26    23    24   ar
    27     3    26    1
    28     5    27    1
    29     6    28    1
    30     6    29    1
    31     7    30    1
    32     7    31    1
    33     9    32    1
    34     9    33    1
    35     9    34    1
    36    11    35    1
    37    12    36    1
    38    14    37    1
    39    14    38    1
    40    14    39    1
    41    15    40    1
    42    15    41    1
    43    15    42    1
    44    16    43    1
    45    17    44    1
    46    18    45    1
    47    19    46    1
    48    20    47    1
    49    20    48    1
    50    21    49    1
    51    22    50    1
    52    23    51    1
    53    24    52    1
    54    25    53    1
    55    25    54    1
    56    25    55    1
@<TRIPOS>MOLECULE
2519
 24 25 0 0 0
SMALL
GASTEIGER

@<TRIPOS>ATOM
      1 O         120.2829  155.6668  146.4082 O.2     1  UNL1111    -0.3481
      2 O         116.7814  152.6489  146.4084 O.2     1  UNL1111    -0.3278
      3 N         118.9181  151.8119  146.4083 N.am    1  UNL1111    -0.2403
      4 N         122.0912  153.2508  146.4081 N.pl3   1  UNL1111    -0.3044
      5 N         118.5132  154.1694  146.4083 N.am    1  UNL1111    -0.2077
      6 N         121.2724  151.1810  146.4082 N.pl3   1  UNL1111    -0.2313
      7 C         120.7301  153.3762  146.4081 C.3     1  UNL1111     0.1531
      8 C         120.2622  152.0936  146.4082 C.3     1  UNL1111     0.1304
      9 C         119.8692  154.5111  146.4082 C.2     1  UNL1111     0.2444
     10 C         117.9984  152.8596  146.4083 C.2     1  UNL1111     0.2517
     11 C         122.3703  151.9070  146.4081 C.3     1  UNL1111     0.0325
     12 C         118.4216  150.4508  146.4085 C.3     1  UNL1111     0.0110
     13 C         123.0941  154.2850  146.4082 C.3     1  UNL1111    -0.0072
     14 C         117.5364  155.2411  146.4085 C.3     1  UNL1111     0.0190
     15 H         123.3816  151.5197  146.4082 H       1  UNL1111     0.1745
     16 H         119.2328  149.7180  146.4085 H       1  UNL1111     0.0732
     17 H         117.7987  150.2999  145.5209 H       1  UNL1111     0.0732
     18 H         117.7988  150.3002  147.2962 H       1  UNL1111     0.0732
     19 H         122.6380  155.2738  146.4070 H       1  UNL1111     0.0689
     20 H         123.7092  154.1658  145.5123 H       1  UNL1111     0.0689
     21 H         123.7076  154.1671  147.3055 H       1  UNL1111     0.0689
     22 H         117.9964  156.2322  146.4085 H       1  UNL1111     0.0747
     23 H         116.9020  155.1432  147.2956 H       1  UNL1111     0.0747
     24 H         116.9017  155.1433  145.5215 H       1  UNL1111     0.0747
@<TRIPOS>BOND
     1     1     9    2
     2     2    10    2
     3     3     8   ar
     4     3    10   ar
     5     3    12    1
     6     4     7   ar
     7     4    11   ar
     8     4    13    1
     9     5     9   ar
    10     5    10   ar
    11     5    14    1
    12     6     8   ar
    13     6    11   ar
    14     7     8   ar
    15     7     9   ar
    16    11    15    1
    17    12    16    1
    18    12    17    1
    19    12    18    1
    20    13    19    1
    21    13    20    1
    22    13    21    1
    23    14    22    1
    24    14    23    1
    25    14    24    1
@<TRIPOS>MOLECULE
6152777
 32 33 0 0 0
SMALL
GASTEIGER

@<TRIPOS>ATOM
      1 C         120.4407  152.0376  147.5655 C.3     1  UNL1111    -0.0112
      2 C         119.3723  151.7324  146.5387 C.2     1  UNL1111    -0.0707
      3 C         121.4896  153.0087  147.0671 C.ar    1  UNL1111    -0.0734
      4 C         118.3258  152.7611  146.3750 C.ar    1  UNL1111    -0.0555
      5 C         119.2557  150.6058  145.8077 C.2     1  UNL1111    -0.1045
      6 C         122.5875  152.5533  146.3235 C.ar    1  UNL1111    -0.0815
      7 C         121.3627  154.3832  147.3150 C.ar    1  UNL1111    -0.0815
      8 C         117.3062  152.8926  147.3254 C.ar    1  UNL1111    -0.0746
      9 C         118.3392  153.6103  145.2614 C.ar    1  UNL1111    -0.0746
     10 C         123.5447  153.4523  145.8499 C.ar    1  UNL1111    -0.0858
     11 C         122.3201  155.2807  146.8398 C.ar    1  UNL1111    -0.0858
     12 C         116.3173  153.8657  147.1670 C.ar    1  UNL1111    -0.0840
     13 C         117.3511  154.5840  145.1057 C.ar    1  UNL1111    -0.0840
     14 C         120.1703  149.4240  145.8032 C.3     1  UNL1111    -0.0515
     15 C         123.4116  154.8150  146.1093 C.ar    1  UNL1111    -0.0868
     16 C         116.3410  154.7111  146.0583 C.ar    1  UNL1111    -0.0862
     17 H         120.9422  151.1236  147.9041 H       1  UNL1111     0.0599
     18 H         119.9808  152.4376  148.4796 H       1  UNL1111     0.0599
     19 H         118.4121  150.5132  145.1225 H       1  UNL1111     0.0759
     20 H         122.7006  151.4941  146.1063 H       1  UNL1111     0.0893
     21 H         120.5088  154.7625  147.8726 H       1  UNL1111     0.0893
     22 H         117.2739  152.2344  148.1900 H       1  UNL1111     0.0918
     23 H         119.1289  153.5233  144.5184 H       1  UNL1111     0.0918
     24 H         124.3924  153.0889  145.2754 H       1  UNL1111     0.0876
     25 H         122.2104  156.3439  147.0362 H       1  UNL1111     0.0876
     26 H         115.5277  153.9620  147.9074 H       1  UNL1111     0.0879
     27 H         117.3722  155.2430  144.2420 H       1  UNL1111     0.0879
     28 H         121.0424  149.5429  146.4489 H       1  UNL1111     0.0360
     29 H         120.5332  149.2456  144.7860 H       1  UNL1111     0.0360
     30 H         119.6246  148.5338  146.1308 H       1  UNL1111     0.0360
     31 H         124.1557  155.5145  145.7383 H       1  UNL1111     0.0874
     32 H         115.5713  155.4686  145.9357 H       1  UNL1111     0.0874
@<TRIPOS>BOND
     1     1     2    1
     2     1     3    1
     3     2     4    1
     4     2     5    2
     5     3     6   ar
     6     3     7   ar
     7     4     8   ar
     8     4     9   ar
     9     5    14    1
    10     6    10   ar
    11     7    11   ar
    12     8    12   ar
    13     9    13   ar
    14    10    15   ar
    15    11    15   ar
    16    12    16   ar
    17    13    16   ar
    18     1    17    1
    19     1    18    1
    20     5    19    1
    21     6    20    1
    22     7    21    1
    23     8    22    1
    24     9    23    1
    25    10    24    1
    26    11    25    1
    27    12    26    1
    28    13    27    1
    29    14    28    1
    30    14    29    1
    31    14    30    1
    32    15    31    1
    33    16    32    1
@<TRIPOS>MOLECULE
72941794
 58 59 0 0 0
SMALL
GASTEIGER

@<TRIPOS>ATOM
      1 O         119.8676  153.7797  147.0189 O.3     1  UNL111     -0.5058
      2 O         119.8017  155.7398  145.8175 O.2     1  UNL111     -0.3397
      3 N         118.8209  150.0373  148.5170 N.4     1  UNL111      0.4249
      4 C         119.4961  152.9223  145.8830 C.3     1  UNL111      0.0951
      5 C         119.5037  151.4542  146.4954 C.3     1  UNL111     -0.0041
      6 C         120.5861  153.0614  144.7467 C.3     1  UNL111      0.0141
      7 C         118.6259  151.3505  147.7648 C.3     1  UNL111     -0.0296
      8 C         118.0622  153.2579  145.4083 C.3     1  UNL111     -0.0247
      9 C         119.1290  150.3497  145.4930 C.3     1  UNL111     -0.0486
     10 C         122.0222  152.7721  145.1513 C.3     1  UNL111     -0.0663
     11 C         117.1183  153.8335  146.2852 C.3     1  UNL111     -0.0671
     12 C         117.6317  152.9745  144.0993 C.3     1  UNL111     -0.0671
     13 C         119.9886  155.1315  146.8573 C.2     1  UNL111      0.2177
     14 C         117.7170  149.8274  149.5237 C.3     1  UNL111     -0.0462
     15 C         120.1713  149.9149  149.1735 C.3     1  UNL111     -0.0462
     16 C         122.8385  153.7855  145.6722 C.3     1  UNL111     -0.0805
     17 C         122.5741  151.4929  144.9782 C.3     1  UNL111     -0.0805
     18 C         115.8119  154.1103  145.8730 C.3     1  UNL111     -0.0831
     19 C         116.3236  153.2500  143.6884 C.3     1  UNL111     -0.0831
     20 C         120.3895  155.7516  148.1753 C.3     1  UNL111      0.0591
     21 C         115.4144  153.8161  144.5746 C.3     1  UNL111     -0.0862
     22 C         124.1542  153.5169  146.0545 C.3     1  UNL111     -0.0857
     23 C         123.8906  151.2253  145.3591 C.3     1  UNL111     -0.0857
     24 C         120.5518  157.2652  148.0652 C.3     1  UNL111     -0.0349
     25 C         124.6776  152.2354  145.9051 C.3     1  UNL111     -0.0868
     26 C         120.9554  157.8810  149.3947 C.3     1  UNL111     -0.0642
     27 H         118.7345  149.2644  147.8461 H       1  UNL111      0.1293
     28 H         120.5316  151.2681  146.8209 H       1  UNL111      0.0725
     29 H         120.5600  154.0670  144.3101 H       1  UNL111      0.0688
     30 H         120.3543  152.4057  143.9002 H       1  UNL111      0.0688
     31 H         118.8312  152.1457  148.4885 H       1  UNL111      0.0767
     32 H         117.5651  151.3821  147.4960 H       1  UNL111      0.0767
     33 H         118.0498  150.3209  145.3108 H       1  UNL111      0.0331
     34 H         119.4238  149.3654  145.8709 H       1  UNL111      0.0331
     35 H         119.6286  150.4684  144.5298 H       1  UNL111      0.0331
     36 H         117.3854  154.0997  147.3049 H       1  UNL111      0.0926
     37 H         118.2969  152.5368  143.3595 H       1  UNL111      0.0926
     38 H         117.7614  150.6326  150.2619 H       1  UNL111      0.0661
     39 H         117.8673  148.8523  149.9947 H       1  UNL111      0.0661
     40 H         116.7637  149.8346  148.9887 H       1  UNL111      0.0661
     41 H         120.3154  150.7701  149.8389 H       1  UNL111      0.0661
     42 H         120.9368  149.8820  148.3964 H       1  UNL111      0.0661
     43 H         120.1924  148.9770  149.7353 H       1  UNL111      0.0661
     44 H         122.4732  154.8065  145.7541 H       1  UNL111      0.0893
     45 H         121.9958  150.6943  144.5212 H       1  UNL111      0.0893
     46 H         115.1076  154.5744  146.5599 H       1  UNL111      0.0879
     47 H         116.0182  153.0337  142.6666 H       1  UNL111      0.0879
     48 H         121.3363  155.2997  148.4918 H       1  UNL111      0.0853
     49 H         119.6154  155.5141  148.9136 H       1  UNL111      0.0853
     50 H         114.4029  154.0439  144.2465 H       1  UNL111      0.0874
     51 H         124.7800  154.3158  146.4460 H       1  UNL111      0.0876
     52 H         124.3126  150.2346  145.2075 H       1  UNL111      0.0876
     53 H         119.6123  157.7184  147.7267 H       1  UNL111      0.0385
     54 H         121.3093  157.5061  147.3096 H       1  UNL111      0.0385
     55 H         125.7088  152.0333  146.1853 H       1  UNL111      0.0874
     56 H         120.1999  157.6864  150.1626 H       1  UNL111      0.0264
     57 H         121.0644  158.9653  149.2926 H       1  UNL111      0.0264
     58 H         121.9110  157.4747  149.7412 H       1  UNL111      0.0264
@<TRIPOS>UNITY_ATOM_ATTR
3 1
charge 1
@<TRIPOS>BOND
     1     1     4    1
     2     1    13    1
     3     2    13    2
     4     3     7    1
     5     3    14    1
     6     3    15    1
     7     4     5    1
     8     4     6    1
     9     4     8    1
    10     5     7    1
    11     5     9    1
    12     6    10    1
    13     8    11   ar
    14     8    12   ar
    15    10    16   ar
    16    10    17   ar
    17    11    18   ar
    18    12    19   ar
    19    13    20    1
    20    16    22   ar
    21    17    23   ar
    22    18    21   ar
    23    19    21   ar
    24    20    24    1
    25    22    25   ar
    26    23    25   ar
    27    24    26    1
    28     3    27    1
    29     5    28    1
    30     6    29    1
    31     6    30    1
    32     7    31    1
    33     7    32    1
    34     9    33    1
    35     9    34    1
    36     9    35    1
    37    11    36    1
    38    12    37    1
    39    14    38    1
    40    14    39    1
    41    14    40    1
    42    15    41    1
    43    15    42    1
    44    15    43    1
    45    16    44    1
    46    17    45    1
    47    18    46    1
    48    19    47    1
    49    20    48    1
    50    20    49    1
    51    21    50    1
    52    22    51    1
    53    23    52    1
    54    24    53    1
    55    24    54    1
    56    25    55    1
    57    26    56    1
    58    26    57    1
    59    26    58    1
@<TRIPOS>MOLECULE
118072
 52 53 0 0 0
SMALL
GASTEIGER

@<TRIPOS>ATOM
      1 O         119.8743  153.5734  147.7093 O.3     1  UNL111     -0.5066
      2 O         120.1717  155.8580  147.6573 O.2     1  UNL111     -0.3412
      3 N         120.6637  149.4864  146.7980 N.4     1  UNL111      0.4249
      4 C         120.1391  153.4028  146.2722 C.3     1  UNL111      0.0949
      5 C         119.9958  151.8375  146.0044 C.3     1  UNL111     -0.0041
      6 C         119.0497  154.2033  145.4490 C.3     1  UNL111      0.0141
      7 C         120.8812  150.9903  146.9484 C.3     1  UNL111     -0.0296
      8 C         121.5941  153.8327  145.9624 C.3     1  UNL111     -0.0247
      9 C         120.2341  151.4378  144.5375 C.3     1  UNL111     -0.0486
     10 C         117.5966  153.8461  145.7161 C.3     1  UNL111     -0.0663
     11 C         122.6082  153.7191  146.9389 C.3     1  UNL111     -0.0671
     12 C         121.9677  154.3407  144.7062 C.3     1  UNL111     -0.0671
     13 C         121.7269  148.7136  147.5402 C.3     1  UNL111     -0.0462
     14 C         119.2899  149.0210  147.1988 C.3     1  UNL111     -0.0462
     15 C         116.9255  152.9138  144.9087 C.3     1  UNL111     -0.0805
     16 C         116.8802  154.4754  146.7431 C.3     1  UNL111     -0.0805
     17 C         119.9167  154.8255  148.2559 C.2     1  UNL111      0.2144
     18 C         123.9277  154.0907  146.6700 C.3     1  UNL111     -0.0831
     19 C         123.2879  154.7174  144.4397 C.3     1  UNL111     -0.0831
     20 C         124.2667  154.5908  145.4192 C.3     1  UNL111     -0.0862
     21 C         115.5885  152.5906  145.1482 C.3     1  UNL111     -0.0857
     22 C         115.5421  154.1536  146.9808 C.3     1  UNL111     -0.0857
     23 C         119.6088  154.7830  149.7213 C.3     1  UNL111      0.0550
     24 C         114.8986  153.2066  146.1882 C.3     1  UNL111     -0.0868
     25 H         120.7929  149.2437  145.8081 H       1  UNL111      0.1293
     26 H         118.9618  151.5804  146.2568 H       1  UNL111      0.0725
     27 H         119.2130  154.0877  144.3721 H       1  UNL111      0.0688
     28 H         119.1581  155.2821  145.6107 H       1  UNL111      0.0688
     29 H         121.9393  151.1450  146.7191 H       1  UNL111      0.0767
     30 H         120.7035  151.2227  148.0035 H       1  UNL111      0.0767
     31 H         121.2961  151.4809  144.2769 H       1  UNL111      0.0331
     32 H         119.6921  152.0723  143.8345 H       1  UNL111      0.0331
     33 H         119.8884  150.4167  144.3479 H       1  UNL111      0.0331
     34 H         122.3858  153.3605  147.9413 H       1  UNL111      0.0926
     35 H         121.2476  154.4729  143.9032 H       1  UNL111      0.0926
     36 H         121.6359  148.9332  148.6072 H       1  UNL111      0.0661
     37 H         122.7027  149.0221  147.1557 H       1  UNL111      0.0661
     38 H         121.5736  147.6492  147.3425 H       1  UNL111      0.0661
     39 H         119.1140  149.3060  148.2390 H       1  UNL111      0.0661
     40 H         119.2531  147.9344  147.0801 H       1  UNL111      0.0661
     41 H         118.5566  149.4759  146.5306 H       1  UNL111      0.0661
     42 H         117.4240  152.4474  144.0634 H       1  UNL111      0.0893
     43 H         117.3413  155.2536  147.3467 H       1  UNL111      0.0893
     44 H         124.6878  154.0126  147.4440 H       1  UNL111      0.0879
     45 H         123.5484  155.1286  143.4665 H       1  UNL111      0.0879
     46 H         125.2879  154.9020  145.2125 H       1  UNL111      0.0874
     47 H         115.0754  151.8781  144.5067 H       1  UNL111      0.0876
     48 H         114.9925  154.6625  147.7695 H       1  UNL111      0.0876
     49 H         119.3806  153.7645  150.0459 H       1  UNL111      0.0793
     50 H         118.7386  155.4138  149.9211 H       1  UNL111      0.0793
     51 H         120.4762  155.1426  150.2807 H       1  UNL111      0.0793
     52 H         113.8510  152.9726  146.3622 H       1  UNL111      0.0874
@<TRIPOS>UNITY_ATOM_ATTR
3 1
charge 1
@<TRIPOS>BOND
     1     1     4    1
     2     1    17    1
     3     2    17    2
     4     3     7    1
     5     3    13    1
     6     3    14    1
     7     4     5    1
     8     4     6    1
     9     4     8    1
    10     5     7    1
    11     5     9    1
    12     6    10    1
    13     8    11   ar
    14     8    12   ar
    15    10    15   ar
    16    10    16   ar
    17    11    18   ar
    18    12    19   ar
    19    15    21   ar
    20    16    22   ar
    21    17    23    1
    22    18    20   ar
    23    19    20   ar
    24    21    24   ar
    25    22    24   ar
    26     3    25    1
    27     5    26    1
    28     6    27    1
    29     6    28    1
    30     7    29    1
    31     7    30    1
    32     9    31    1
    33     9    32    1
    34     9    33    1
    35    11    34    1
    36    12    35    1
    37    13    36    1
    38    13    37    1
    39    13    38    1
    40    14    39    1
    41    14    40    1
    42    14    41    1
    43    15    42    1
    44    16    43    1
    45    18    44    1
    46    19    45    1
    47    20    46    1
    48    21    47    1
    49    22    48    1
    50    23    49    1
    51    23    50    1
    52    23    51    1
    53    24    52    1
@<TRIPOS>MOLECULE
76965205
 44 45 0 0 0
SMALL
GASTEIGER

@<TRIPOS>ATOM
      1 N         115.5619  152.5716  146.2596 N.4     1  UNL111      0.4244
      2 C         117.9028  152.6020  147.3181 C.3     1  UNL111     -0.0262
      3 C         117.0637  152.5080  146.0208 C.3     1  UNL111     -0.0353
      4 C         119.3870  152.6864  146.9416 C.2     1  UNL111     -0.0587
      5 C         117.5658  151.4673  148.2977 C.3     1  UNL111     -0.0542
      6 C         119.8143  154.0200  146.4503 C.ar    1  UNL111     -0.0518
      7 C         120.2552  151.6562  147.0426 C.2     1  UNL111     -0.0659
      8 C         115.0965  153.9155  146.7544 C.3     1  UNL111     -0.0463
      9 C         114.8060  152.1690  145.0185 C.3     1  UNL111     -0.0463
     10 C         121.6916  151.6711  146.7233 C.ar    1  UNL111     -0.0571
     11 C         120.2349  154.1898  145.1237 C.ar    1  UNL111     -0.0741
     12 C         119.7849  155.1330  147.3017 C.ar    1  UNL111     -0.0741
     13 C         120.6103  155.4508  144.6567 C.ar    1  UNL111     -0.0840
     14 C         120.1601  156.3933  146.8321 C.ar    1  UNL111     -0.0840
     15 C         122.1872  150.7765  145.7667 C.ar    1  UNL111     -0.0755
     16 C         122.5816  152.5252  147.3847 C.ar    1  UNL111     -0.0755
     17 C         120.5691  156.5518  145.5096 C.ar    1  UNL111     -0.0862
     18 C         123.5491  150.7554  145.4584 C.ar    1  UNL111     -0.0842
     19 C         123.9429  152.5038  147.0743 C.ar    1  UNL111     -0.0842
     20 C         124.4255  151.6209  146.1102 C.ar    1  UNL111     -0.0863
     21 H         115.3188  151.8766  146.9760 H       1  UNL111      0.1292
     22 H         117.6431  153.5273  147.8456 H       1  UNL111      0.0643
     23 H         117.2967  153.3150  145.3169 H       1  UNL111      0.0758
     24 H         117.2600  151.5501  145.5231 H       1  UNL111      0.0758
     25 H         117.6202  150.4851  147.8160 H       1  UNL111      0.0321
     26 H         116.5541  151.5839  148.6997 H       1  UNL111      0.0321
     27 H         118.2481  151.4709  149.1552 H       1  UNL111      0.0321
     28 H         119.9229  150.6788  147.3858 H       1  UNL111      0.0944
     29 H         115.4046  154.6796  146.0359 H       1  UNL111      0.0661
     30 H         115.5349  154.0953  147.7377 H       1  UNL111      0.0661
     31 H         114.0074  153.8848  146.8475 H       1  UNL111      0.0661
     32 H         115.0369  152.8820  144.2225 H       1  UNL111      0.0661
     33 H         113.7385  152.1742  145.2542 H       1  UNL111      0.0661
     34 H         115.1177  151.1577  144.7443 H       1  UNL111      0.0661
     35 H         120.2961  153.3405  144.4470 H       1  UNL111      0.0918
     36 H         119.4985  155.0273  148.3455 H       1  UNL111      0.0918
     37 H         120.9535  155.5719  143.6317 H       1  UNL111      0.0879
     38 H         120.1523  157.2502  147.5020 H       1  UNL111      0.0879
     39 H         121.5210  150.0905  145.2502 H       1  UNL111      0.0914
     40 H         122.2268  153.2146  148.1465 H       1  UNL111      0.0914
     41 H         120.8766  157.5308  145.1484 H       1  UNL111      0.0874
     42 H         123.9290  150.0619  144.7121 H       1  UNL111      0.0879
     43 H         124.6275  153.1746  147.5875 H       1  UNL111      0.0879
     44 H         125.4862  151.6040  145.8713 H       1  UNL111      0.0874
@<TRIPOS>UNITY_ATOM_ATTR
1 1
charge 1
@<TRIPOS>BOND
     1     1     3    1
     2     1     8    1
     3     1     9    1
     4     2     3    1
     5     2     4    1
     6     2     5    1
     7     4     6    1
     8     4     7    2
     9     6    11   ar
    10     6    12   ar
    11     7    10    1
    12    10    15   ar
    13    10    16   ar
    14    11    13   ar
    15    12    14   ar
    16    13    17   ar
    17    14    17   ar
    18    15    18   ar
    19    16    19   ar
    20    18    20   ar
    21    19    20   ar
    22     1    21    1
    23     2    22    1
    24     3    23    1
    25     3    24    1
    26     5    25    1
    27     5    26    1
    28     5    27    1
    29     7    28    1
    30     8    29    1
    31     8    30    1
    32     8    31    1
    33     9    32    1
    34     9    33    1
    35     9    34    1
    36    11    35    1
    37    12    36    1
    38    13    37    1
    39    14    38    1
    40    15    39    1
    41    16    40    1
    42    17    41    1
    43    18    42    1
    44    19    43    1
    45    20    44    1
@<TRIPOS>MOLECULE
18804
 52 53 0 0 0
SMALL
GASTEIGER

@<TRIPOS>ATOM
      1 O         120.0375  151.8673  145.5601 O.3     1  UNL111     -0.5059
      2 O         120.6381  150.4084  147.2306 O.2     1  UNL111     -0.3399
      3 N         119.4540  156.7433  145.2702 N.4     1  UNL111      0.4313
      4 C         120.2194  153.0690  146.3772 C.3     1  UNL111      0.0950
      5 C         119.8533  154.2816  145.4113 C.3     1  UNL111     -0.0039
      6 C         119.2098  153.0291  147.5958 C.3     1  UNL111      0.0141
      7 C         120.1009  155.6488  146.0710 C.3     1  UNL111     -0.0251
      8 C         121.7055  153.1921  146.7937 C.3     1  UNL111     -0.0247
      9 C         120.5272  154.2193  144.0243 C.3     1  UNL111     -0.0486
     10 C         117.7299  153.0868  147.2557 C.3     1  UNL111     -0.0663
     11 C         122.1062  153.6888  148.0477 C.3     1  UNL111     -0.0671
     12 C         122.7276  152.8112  145.8991 C.3     1  UNL111     -0.0671
     13 C         120.2995  150.6323  146.0806 C.2     1  UNL111      0.2169
     14 C         116.9779  154.2392  147.5406 C.3     1  UNL111     -0.0805
     15 C         117.0769  151.9874  146.6840 C.3     1  UNL111     -0.0805
     16 C         123.4596  153.8183  148.3791 C.3     1  UNL111     -0.0831
     17 C         124.0786  152.9417  146.2302 C.3     1  UNL111     -0.0831
     18 C         119.5625  158.0929  145.8887 C.3     1  UNL111     -0.0417
     19 C         120.0959  149.5916  145.0055 C.3     1  UNL111      0.0573
     20 C         124.4444  153.4504  147.4697 C.3     1  UNL111     -0.0862
     21 C         115.6197  154.3009  147.2221 C.3     1  UNL111     -0.0857
     22 C         115.7192  152.0506  146.3661 C.3     1  UNL111     -0.0857
     23 C         114.9928  153.2088  146.6280 C.3     1  UNL111     -0.0868
     24 C         120.2882  148.1815  145.5338 C.3     1  UNL111     -0.0381
     25 H         118.4590  156.5203  145.1223 H       1  UNL111      0.1334
     26 H         119.8770  156.7860  144.3334 H       1  UNL111      0.1334
     27 H         118.7840  154.1957  145.1791 H       1  UNL111      0.0725
     28 H         119.4038  153.8693  148.2710 H       1  UNL111      0.0688
     29 H         119.3675  152.1392  148.2147 H       1  UNL111      0.0688
     30 H         119.6659  155.7119  147.0706 H       1  UNL111      0.0767
     31 H         121.1668  155.8933  146.1241 H       1  UNL111      0.0767
     32 H         121.5775  154.5218  144.0661 H       1  UNL111      0.0330
     33 H         120.0264  154.8938  143.3213 H       1  UNL111      0.0330
     34 H         120.4675  153.2203  143.5827 H       1  UNL111      0.0330
     35 H         121.3932  153.9654  148.8184 H       1  UNL111      0.0926
     36 H         122.4880  152.3837  144.9270 H       1  UNL111      0.0926
     37 H         117.4290  155.0888  148.0461 H       1  UNL111      0.0893
     38 H         117.6048  151.0552  146.5035 H       1  UNL111      0.0893
     39 H         123.7467  154.1861  149.3623 H       1  UNL111      0.0879
     40 H         124.8458  152.6268  145.5262 H       1  UNL111      0.0879
     41 H         119.0547  158.0694  146.8557 H       1  UNL111      0.0661
     42 H         119.0742  158.8007  145.2155 H       1  UNL111      0.0661
     43 H         120.6219  158.3357  145.9994 H       1  UNL111      0.0661
     44 H         120.8131  149.7820  144.2002 H       1  UNL111      0.0842
     45 H         119.0790  149.6933  144.6115 H       1  UNL111      0.0842
     46 H         125.4952  153.5353  147.7370 H       1  UNL111      0.0874
     47 H         115.0376  155.1874  147.4629 H       1  UNL111      0.0876
     48 H         115.2220  151.1847  145.9337 H       1  UNL111      0.0876
     49 H         113.9306  153.2460  146.3966 H       1  UNL111      0.0874
     50 H         121.3009  148.0436  145.9269 H       1  UNL111      0.0335
     51 H         120.1283  147.4503  144.7356 H       1  UNL111      0.0335
     52 H         119.5826  147.9657  146.3430 H       1  UNL111      0.0335
@<TRIPOS>UNITY_ATOM_ATTR
3 1
charge 1
@<TRIPOS>BOND
     1     1     4    1
     2     1    13    1
     3     2    13    2
     4     3     7    1
     5     3    18    1
     6     4     5    1
     7     4     6    1
     8     4     8    1
     9     5     7    1
    10     5     9    1
    11     6    10    1
    12     8    11   ar
    13     8    12   ar
    14    10    14   ar
    15    10    15   ar
    16    11    16   ar
    17    12    17   ar
    18    13    19    1
    19    14    21   ar
    20    15    22   ar
    21    16    20   ar
    22    17    20   ar
    23    19    24    1
    24    21    23   ar
    25    22    23   ar
    26     3    25    1
    27     3    26    1
    28     5    27    1
    29     6    28    1
    30     6    29    1
    31     7    30    1
    32     7    31    1
    33     9    32    1
    34     9    33    1
    35     9    34    1
    36    11    35    1
    37    12    36    1
    38    14    37    1
    39    15    38    1
    40    16    39    1
    41    17    40    1
    42    18    41    1
    43    18    42    1
    44    18    43    1
    45    19    44    1
    46    19    45    1
    47    20    46    1
    48    21    47    1
    49    22    48    1
    50    23    49    1
    51    24    50    1
    52    24    51    1
    53    24    52    1
@<TRIPOS>MOLECULE
25137868
 55 56 0 0 0
SMALL
GASTEIGER

@<TRIPOS>ATOM
      1 O         119.8947  153.6776  145.4252 O.3     1  UNL111     -0.5059
      2 O         120.1053  155.9135  145.9215 O.2     1  UNL111     -0.3399
      3 N         120.6445  149.5878  145.2649 N.4     1  UNL111      0.4249
      4 C         120.1750  153.2149  146.7930 C.3     1  UNL111      0.0950
      5 C         120.0521  151.6323  146.6899 C.3     1  UNL111     -0.0041
      6 C         119.0842  153.8005  147.7755 C.3     1  UNL111      0.0141
      7 C         120.9403  151.0547  145.5626 C.3     1  UNL111     -0.0296
      8 C         121.6244  153.5783  147.1939 C.3     1  UNL111     -0.0247
      9 C         120.3134  150.8901  148.0111 C.3     1  UNL111     -0.0486
     10 C         117.6343  153.5112  147.4237 C.3     1  UNL111     -0.0663
     11 C         122.0091  153.7016  148.5416 C.3     1  UNL111     -0.0671
     12 C         122.6270  153.7673  146.2192 C.3     1  UNL111     -0.0671
     13 C         119.8835  155.0122  145.1313 C.2     1  UNL111      0.2169
     14 C         121.7430  148.9790  144.4291 C.3     1  UNL111     -0.0462
     15 C         119.3001  149.3636  144.6230 C.3     1  UNL111     -0.0462
     16 C         116.9170  154.3696  146.5791 C.3     1  UNL111     -0.0805
     17 C         116.9701  152.3999  147.9665 C.3     1  UNL111     -0.0805
     18 C         123.3291  153.9964  148.8970 C.3     1  UNL111     -0.0831
     19 C         123.9454  154.0641  146.5754 C.3     1  UNL111     -0.0831
     20 C         119.5541  155.1912  143.6685 C.3     1  UNL111      0.0573
     21 C         124.2965  154.1763  147.9151 C.3     1  UNL111     -0.0862
     22 C         115.5880  154.0989  146.2474 C.3     1  UNL111     -0.0857
     23 C         115.6405  152.1305  147.6357 C.3     1  UNL111     -0.0857
     24 C         114.9524  152.9756  146.7694 C.3     1  UNL111     -0.0868
     25 C         119.5118  156.6555  143.2697 C.3     1  UNL111     -0.0381
     26 H         120.6516  149.0698  146.1518 H       1  UNL111      0.1293
     27 H         119.0178  151.4283  146.3970 H       1  UNL111      0.0725
     28 H         119.1939  154.8879  147.8658 H       1  UNL111      0.0688
     29 H         119.2435  153.4387  148.7972 H       1  UNL111      0.0688
     30 H         120.8187  151.5852  144.6128 H       1  UNL111      0.0767
     31 H         121.9947  151.0901  145.8549 H       1  UNL111      0.0767
     32 H         121.3826  150.8423  148.2414 H       1  UNL111      0.0331
     33 H         119.9435  149.8610  147.9585 H       1  UNL111      0.0331
     34 H         119.8076  151.3526  148.8607 H       1  UNL111      0.0331
     35 H         121.2978  153.5771  149.3540 H       1  UNL111      0.0926
     36 H         122.3993  153.7087  145.1578 H       1  UNL111      0.0926
     37 H         121.7816  149.5025  143.4701 H       1  UNL111      0.0661
     38 H         121.5166  147.9185  144.2902 H       1  UNL111      0.0661
     39 H         122.6841  149.0858  144.9750 H       1  UNL111      0.0661
     40 H         119.2422  149.9665  143.7131 H       1  UNL111      0.0661
     41 H         118.5214  149.6419  145.3351 H       1  UNL111      0.0661
     42 H         119.2075  148.2990  144.3908 H       1  UNL111      0.0661
     43 H         117.3716  155.2805  146.1963 H       1  UNL111      0.0893
     44 H         117.4699  151.7435  148.6739 H       1  UNL111      0.0893
     45 H         123.5992  154.0995  149.9462 H       1  UNL111      0.0879
     46 H         124.6969  154.2275  145.8062 H       1  UNL111      0.0879
     47 H         118.5781  154.7341  143.4745 H       1  UNL111      0.0842
     48 H         120.3168  154.6747  143.0763 H       1  UNL111      0.0842
     49 H         125.3183  154.4216  148.1949 H       1  UNL111      0.0874
     50 H         115.0401  154.7803  145.6005 H       1  UNL111      0.0876
     51 H         115.1312  151.2749  148.0729 H       1  UNL111      0.0876
     52 H         113.9114  152.7775  146.5253 H       1  UNL111      0.0874
     53 H         118.7545  157.1979  143.8455 H       1  UNL111      0.0335
     54 H         119.2701  156.7546  142.2071 H       1  UNL111      0.0335
     55 H         120.4779  157.1395  143.4479 H       1  UNL111      0.0335
@<TRIPOS>UNITY_ATOM_ATTR
3 1
charge 1
@<TRIPOS>BOND
     1     1     4    1
     2     1    13    1
     3     2    13    2
     4     3     7    1
     5     3    14    1
     6     3    15    1
     7     4     5    1
     8     4     6    1
     9     4     8    1
    10     5     7    1
    11     5     9    1
    12     6    10    1
    13     8    11   ar
    14     8    12   ar
    15    10    16   ar
    16    10    17   ar
    17    11    18   ar
    18    12    19   ar
    19    13    20    1
    20    16    22   ar
    21    17    23   ar
    22    18    21   ar
    23    19    21   ar
    24    20    25    1
    25    22    24   ar
    26    23    24   ar
    27     3    26    1
    28     5    27    1
    29     6    28    1
    30     6    29    1
    31     7    30    1
    32     7    31    1
    33     9    32    1
    34     9    33    1
    35     9    34    1
    36    11    35    1
    37    12    36    1
    38    14    37    1
    39    14    38    1
    40    14    39    1
    41    15    40    1
    42    15    41    1
    43    15    42    1
    44    16    43    1
    45    17    44    1
    46    18    45    1
    47    19    46    1
    48    20    47    1
    49    20    48    1
    50    21    49    1
    51    22    50    1
    52    23    51    1
    53    24    52    1
    54    25    53    1
    55    25    54    1
    56    25    55    1
@<TRIPOS>MOLECULE
76967601
 44 45 0 0 0
SMALL
GASTEIGER

@<TRIPOS>ATOM
      1 N         119.8025  156.4568  146.8221 N.4     1  UNL111      0.4244
      2 C         119.8424  153.9130  147.1287 C.3     1  UNL111     -0.0262
      3 C         119.2620  155.1132  146.3489 C.3     1  UNL111     -0.0353
      4 C         119.4412  152.5904  146.4784 C.2     1  UNL111     -0.0587
      5 C         119.4843  153.9574  148.6190 C.3     1  UNL111     -0.0542
      6 C         118.0019  152.3071  146.3107 C.ar    1  UNL111     -0.0518
      7 C         120.2990  151.6616  146.0095 C.2     1  UNL111     -0.0659
      8 C         121.2695  156.6473  146.5394 C.3     1  UNL111     -0.0463
      9 C         118.9932  157.5905  146.2468 C.3     1  UNL111     -0.0463
     10 C         121.7575  151.7798  146.0586 C.ar    1  UNL111     -0.0571
     11 C         117.2435  151.8045  147.3742 C.ar    1  UNL111     -0.0741
     12 C         117.3860  152.5099  145.0674 C.ar    1  UNL111     -0.0741
     13 C         115.8825  151.5419  147.2074 C.ar    1  UNL111     -0.0840
     14 C         116.0250  152.2460  144.9030 C.ar    1  UNL111     -0.0840
     15 C         122.4622  152.1638  144.9128 C.ar    1  UNL111     -0.0755
     16 C         122.4524  151.5265  147.2462 C.ar    1  UNL111     -0.0755
     17 C         115.2734  151.7677  145.9744 C.ar    1  UNL111     -0.0862
     18 C         123.8507  152.3013  144.9578 C.ar    1  UNL111     -0.0842
     19 C         123.8406  151.6654  147.2886 C.ar    1  UNL111     -0.0842
     20 C         124.5383  152.0546  146.1457 C.ar    1  UNL111     -0.0863
     21 H         119.6768  156.5067  147.8408 H       1  UNL111      0.1292
     22 H         120.9322  153.9929  147.0818 H       1  UNL111      0.0643
     23 H         119.4867  155.0447  145.2776 H       1  UNL111      0.0758
     24 H         118.1743  155.1606  146.4777 H       1  UNL111      0.0758
     25 H         118.4096  154.0964  148.7755 H       1  UNL111      0.0321
     26 H         119.9993  154.7836  149.1201 H       1  UNL111      0.0321
     27 H         119.7896  153.0355  149.1263 H       1  UNL111      0.0321
     28 H         119.9395  150.7428  145.5452 H       1  UNL111      0.0944
     29 H         121.4420  156.5008  145.4701 H       1  UNL111      0.0661
     30 H         121.8369  155.9313  147.1365 H       1  UNL111      0.0661
     31 H         121.5455  157.6611  146.8425 H       1  UNL111      0.0661
     32 H         119.0949  157.5738  145.1584 H       1  UNL111      0.0661
     33 H         119.3752  158.5265  146.6631 H       1  UNL111      0.0661
     34 H         117.9514  157.4521  146.5476 H       1  UNL111      0.0661
     35 H         117.7046  151.5936  148.3365 H       1  UNL111      0.0918
     36 H         117.9607  152.8563  144.2117 H       1  UNL111      0.0918
     37 H         115.2990  151.1445  148.0351 H       1  UNL111      0.0879
     38 H         115.5517  152.3952  143.9351 H       1  UNL111      0.0879
     39 H         121.9403  152.3422  143.9757 H       1  UNL111      0.0914
     40 H         121.9211  151.2074  148.1401 H       1  UNL111      0.0914
     41 H         114.2155  151.5496  145.8433 H       1  UNL111      0.0874
     42 H         124.4004  152.5826  144.0625 H       1  UNL111      0.0879
     43 H         124.3811  151.4539  148.2085 H       1  UNL111      0.0879
     44 H         125.6219  152.1460  146.1760 H       1  UNL111      0.0874
@<TRIPOS>UNITY_ATOM_ATTR
1 1
charge 1
@<TRIPOS>BOND
     1     1     3    1
     2     1     8    1
     3     1     9    1
     4     2     3    1
     5     2     4    1
     6     2     5    1
     7     4     6    1
     8     4     7    2
     9     6    11   ar
    10     6    12   ar
    11     7    10    1
    12    10    15   ar
    13    10    16   ar
    14    11    13   ar
    15    12    14   ar
    16    13    17   ar
    17    14    17   ar
    18    15    18   ar
    19    16    19   ar
    20    18    20   ar
    21    19    20   ar
    22     1    21    1
    23     2    22    1
    24     3    23    1
    25     3    24    1
    26     5    25    1
    27     5    26    1
    28     5    27    1
    29     7    28    1
    30     8    29    1
    31     8    30    1
    32     8    31    1
    33     9    32    1
    34     9    33    1
    35     9    34    1
    36    11    35    1
    37    12    36    1
    38    13    37    1
    39    14    38    1
    40    15    39    1
    41    16    40    1
    42    17    41    1
    43    18    42    1
    44    19    43    1
    45    20    44    1
