@<TRIPOS>MOLECULE
121596705
 53 54 0 0 0
SMALL
GASTEIGER

@<TRIPOS>ATOM
      1 S         124.0658  152.0931  147.5976 S.3     1  UNL111     -0.1578
      2 O         119.2182  155.6782  146.5702 O.2     1  UNL111     -0.3435
      3 O         121.5221  148.7761  145.0230 O.2     1  UNL111     -0.5649
      4 N         116.1081  153.9570  147.4326 N.4     1  UNL111      0.4268
      5 N         118.9284  154.0785  144.9897 N.am    1  UNL111     -0.2992
      6 N         120.9665  155.0493  145.2134 N.am    1  UNL111     -0.3030
      7 C         117.2502  153.2620  146.6565 C.3     1  UNL111     -0.0171
      8 C         116.9413  151.7515  146.5245 C.3     1  UNL111     -0.0240
      9 C         117.5166  153.9278  145.2767 C.3     1  UNL111      0.0072
     10 C         118.1474  150.9434  146.1103 C.3     1  UNL111     -0.0680
     11 C         121.9932  155.9566  145.7281 C.3     1  UNL111      0.0059
     12 C         116.5309  155.3119  147.9637 C.3     1  UNL111     -0.0446
     13 C         114.7839  154.0295  146.7291 C.3     1  UNL111     -0.0446
     14 C         122.3279  155.7278  147.2164 C.3     1  UNL111     -0.0154
     15 C         119.6850  154.9977  145.6644 C.2     1  UNL111      0.2123
     16 C         118.2968  150.5023  144.7860 C.3     1  UNL111     -0.0649
     17 C         119.1456  150.6360  147.0460 C.3     1  UNL111     -0.0649
     18 C         121.6329  157.4192  145.4656 C.3     1  UNL111     -0.0475
     19 C         122.7506  154.3156  147.5289 C.3     1  UNL111     -0.0606
     20 C         119.4270  149.7751  144.4027 C.3     1  UNL111     -0.0314
     21 C         120.2707  149.9069  146.6612 C.3     1  UNL111     -0.0314
     22 C         120.4050  149.4844  145.3456 C.3     1  UNL111      0.0326
     23 C         122.0277  153.4290  148.3944 C.3     1  UNL111     -0.0666
     24 C         123.8926  153.7021  147.0462 C.3     1  UNL111     -0.0439
     25 C         122.6369  152.2016  148.5259 C.3     1  UNL111     -0.0473
     26 H         121.4640  148.4792  144.0999 H       1  UNL111      0.3342
     27 H         115.9606  153.3893  148.2771 H       1  UNL111      0.1319
     28 H         119.3654  153.5169  144.2705 H       1  UNL111      0.1980
     29 H         121.2744  154.3507  144.5536 H       1  UNL111      0.1959
     30 H         118.1226  153.3719  147.3124 H       1  UNL111      0.0888
     31 H         116.1271  151.5842  145.8087 H       1  UNL111      0.0615
     32 H         116.5809  151.3545  147.4828 H       1  UNL111      0.0615
     33 H         117.0752  153.3484  144.4592 H       1  UNL111      0.0861
     34 H         117.0842  154.9318  145.2228 H       1  UNL111      0.0861
     35 H         122.8874  155.7320  145.1322 H       1  UNL111      0.0784
     36 H         116.6417  156.0064  147.1291 H       1  UNL111      0.0666
     37 H         117.4627  155.1864  148.5202 H       1  UNL111      0.0666
     38 H         115.7467  155.6575  148.6432 H       1  UNL111      0.0666
     39 H         114.8800  154.6622  145.8442 H       1  UNL111      0.0666
     40 H         114.0563  154.4547  147.4260 H       1  UNL111      0.0666
     41 H         114.4767  153.0175  146.4586 H       1  UNL111      0.0666
     42 H         121.4686  155.9949  147.8438 H       1  UNL111      0.0553
     43 H         123.1423  156.4022  147.5124 H       1  UNL111      0.0553
     44 H         117.5345  150.7092  144.0376 H       1  UNL111      0.0928
     45 H         119.0615  150.9481  148.0844 H       1  UNL111      0.0928
     46 H         120.7589  157.7345  146.0446 H       1  UNL111      0.0351
     47 H         121.4040  157.5783  144.4063 H       1  UNL111      0.0351
     48 H         122.4667  158.0767  145.7335 H       1  UNL111      0.0351
     49 H         119.5252  149.4383  143.3747 H       1  UNL111      0.1102
     50 H         121.0424  149.6598  147.3859 H       1  UNL111      0.1102
     51 H         121.1106  153.6904  148.9069 H       1  UNL111      0.0938
     52 H         124.6435  154.1187  146.3881 H       1  UNL111      0.1102
     53 H         122.3162  151.3592  149.1226 H       1  UNL111      0.1086
@<TRIPOS>UNITY_ATOM_ATTR
4 1
charge 1
@<TRIPOS>BOND
     1     1    24   ar
     2     1    25   ar
     3     2    15    2
     4     3    22    1
     5     4     7    1
     6     4    12    1
     7     4    13    1
     8     5     9    1
     9     5    15   am
    10     6    11    1
    11     6    15   am
    12     7     8    1
    13     7     9    1
    14     8    10    1
    15    10    16   ar
    16    10    17   ar
    17    11    14    1
    18    11    18    1
    19    14    19    1
    20    16    20   ar
    21    17    21   ar
    22    19    23   ar
    23    19    24   ar
    24    20    22   ar
    25    21    22   ar
    26    23    25   ar
    27     3    26    1
    28     4    27    1
    29     5    28    1
    30     6    29    1
    31     7    30    1
    32     8    31    1
    33     8    32    1
    34     9    33    1
    35     9    34    1
    36    11    35    1
    37    12    36    1
    38    12    37    1
    39    12    38    1
    40    13    39    1
    41    13    40    1
    42    13    41    1
    43    14    42    1
    44    14    43    1
    45    16    44    1
    46    17    45    1
    47    18    46    1
    48    18    47    1
    49    18    48    1
    50    20    49    1
    51    21    50    1
    52    23    51    1
    53    24    52    1
    54    25    53    1
