@<TRIPOS>MOLECULE
60815
 56 57 0 0 0
SMALL
GASTEIGER

@<TRIPOS>ATOM
      1 O         119.4476  155.9124  147.1837 O.3     1  UNL111     -0.5242
      2 O         118.2300  154.5683  148.5748 O.2     1  UNL111     -0.3272
      3 O         117.0066  155.1876  145.3198 O.2     1  UNL111     -0.3812
      4 O         126.5249  151.7253  146.3317 O.3     1  UNL111     -0.5299
      5 O         126.1509  153.9853  146.1206 O.2     1  UNL111     -0.3376
      6 N         121.9648  153.3596  145.9670 N.4     1  UNL111      0.4301
      7 N         117.6451  153.1417  146.1337 N.am    1  UNL111     -0.2518
      8 C         119.0326  153.6439  146.4510 C.3     1  UNL111      0.1416
      9 C         119.9388  152.5771  147.1289 C.3     1  UNL111      0.0011
     10 C         119.7321  154.1043  145.1459 C.3     1  UNL111      0.0011
     11 C         121.3716  153.0448  147.3157 C.3     1  UNL111     -0.0296
     12 C         121.2015  154.4745  145.2924 C.3     1  UNL111     -0.0296
     13 C         118.8227  154.7521  147.5180 C.2     1  UNL111      0.2494
     14 C         123.4568  153.7000  146.0380 C.3     1  UNL111     -0.0107
     15 C         117.3129  151.7937  146.4040 C.3     1  UNL111      0.0036
     16 C         116.7057  154.0192  145.5720 C.2     1  UNL111      0.1568
     17 C         124.2982  152.4524  146.2696 C.3     1  UNL111      0.0656
     18 C         115.3028  153.4828  145.3049 C.3     1  UNL111      0.0345
     19 C         117.3502  150.8492  145.3737 C.3     1  UNL111     -0.0544
     20 C         116.9517  151.4111  147.6987 C.3     1  UNL111     -0.0544
     21 C         125.7525  152.8356  146.2274 C.2     1  UNL111      0.2193
     22 C         114.3619  154.5601  144.7902 C.3     1  UNL111     -0.0445
     23 C         119.1778  156.9979  148.0781 C.3     1  UNL111      0.0468
     24 C         117.0359  149.5176  145.6450 C.3     1  UNL111     -0.0786
     25 C         116.6382  150.0785  147.9641 C.3     1  UNL111     -0.0786
     26 C         116.6831  149.1332  146.9390 C.3     1  UNL111     -0.0844
     27 C         127.9331  151.9812  146.3077 C.3     1  UNL111      0.0455
     28 H         121.8777  152.5272  145.3652 H       1  UNL111      0.1333
     29 H         119.9594  151.6587  146.5279 H       1  UNL111      0.0646
     30 H         119.5497  152.2994  148.1159 H       1  UNL111      0.0646
     31 H         119.2312  154.9674  144.6968 H       1  UNL111      0.0646
     32 H         119.6527  153.2963  144.4051 H       1  UNL111      0.0646
     33 H         121.4526  153.9393  147.9422 H       1  UNL111      0.0752
     34 H         121.9635  152.2410  147.7617 H       1  UNL111      0.0752
     35 H         121.6445  154.6118  144.2995 H       1  UNL111      0.0752
     36 H         121.3684  155.3863  145.8720 H       1  UNL111      0.0752
     37 H         123.5838  154.4483  146.8288 H       1  UNL111      0.0809
     38 H         123.7199  154.1566  145.0765 H       1  UNL111      0.0809
     39 H         124.1049  151.7143  145.4839 H       1  UNL111      0.0989
     40 H         124.0922  152.0085  147.2476 H       1  UNL111      0.0989
     41 H         114.8924  153.0706  146.2325 H       1  UNL111      0.0735
     42 H         115.3627  152.6851  144.5581 H       1  UNL111      0.0735
     43 H         117.6102  151.1394  144.3594 H       1  UNL111      0.0994
     44 H         116.8948  152.1441  148.5011 H       1  UNL111      0.0994
     45 H         114.2679  155.3778  145.5125 H       1  UNL111      0.0319
     46 H         113.3656  154.1428  144.6142 H       1  UNL111      0.0319
     47 H         114.7260  154.9835  143.8482 H       1  UNL111      0.0319
     48 H         119.6390  157.8984  147.6635 H       1  UNL111      0.1103
     49 H         119.6217  156.7984  149.0581 H       1  UNL111      0.1103
     50 H         118.1001  157.1687  148.1647 H       1  UNL111      0.1103
     51 H         117.0515  148.7779  144.8474 H       1  UNL111      0.0890
     52 H         116.3448  149.7773  148.9676 H       1  UNL111      0.0890
     53 H         116.4266  148.0961  147.1470 H       1  UNL111      0.0876
     54 H         128.4524  151.0218  146.3805 H       1  UNL111      0.1102
     55 H         128.2215  152.6001  147.1629 H       1  UNL111      0.1102
     56 H         128.2183  152.4612  145.3664 H       1  UNL111      0.1102
@<TRIPOS>UNITY_ATOM_ATTR
6 1
charge 1
@<TRIPOS>BOND
     1     1    13    1
     2     1    23    1
     3     2    13    2
     4     3    16    2
     5     4    21    1
     6     4    27    1
     7     5    21    2
     8     6    11    1
     9     6    12    1
    10     6    14    1
    11     7     8    1
    12     7    15    1
    13     7    16   am
    14     8     9    1
    15     8    10    1
    16     8    13    1
    17     9    11    1
    18    10    12    1
    19    14    17    1
    20    15    19   ar
    21    15    20   ar
    22    16    18    1
    23    17    21    1
    24    18    22    1
    25    19    24   ar
    26    20    25   ar
    27    24    26   ar
    28    25    26   ar
    29     6    28    1
    30     9    29    1
    31     9    30    1
    32    10    31    1
    33    10    32    1
    34    11    33    1
    35    11    34    1
    36    12    35    1
    37    12    36    1
    38    14    37    1
    39    14    38    1
    40    17    39    1
    41    17    40    1
    42    18    41    1
    43    18    42    1
    44    19    43    1
    45    20    44    1
    46    22    45    1
    47    22    46    1
    48    22    47    1
    49    23    48    1
    50    23    49    1
    51    23    50    1
    52    24    51    1
    53    25    52    1
    54    26    53    1
    55    27    54    1
    56    27    55    1
    57    27    56    1
@<TRIPOS>MOLECULE
14987174
 53 54 0 0 0
SMALL
GASTEIGER

@<TRIPOS>ATOM
      1 O         117.5634  155.2764  145.2412 O.3     1  UNL111     -0.5242
      2 O         119.8179  155.6547  145.2677 O.2     1  UNL111     -0.3272
      3 O         117.5520  155.1751  148.3219 O.2     1  UNL111     -0.3825
      4 O         126.5441  152.3492  147.3513 O.3     1  UNL111     -0.5299
      5 O         125.9697  152.8932  145.1916 O.2     1  UNL111     -0.3376
      6 N         121.8537  152.8958  146.1849 N.4     1  UNL111      0.4301
      7 N         117.6211  153.2959  146.9968 N.am    1  UNL111     -0.2526
      8 C         118.9660  153.6766  146.4194 C.3     1  UNL111      0.1415
      9 C         120.0024  153.8222  147.5652 C.3     1  UNL111      0.0011
     10 C         119.5130  152.6290  145.4053 C.3     1  UNL111      0.0011
     11 C         121.4472  154.0016  147.1228 C.3     1  UNL111     -0.0296
     12 C         120.9542  152.8596  144.9732 C.3     1  UNL111     -0.0296
     13 C         118.8382  155.0078  145.6268 C.2     1  UNL111      0.2493
     14 C         123.3181  153.0035  145.7459 C.3     1  UNL111     -0.0107
     15 C         117.0000  152.0891  146.5951 C.3     1  UNL111      0.0034
     16 C         117.0117  154.1360  147.9376 C.2     1  UNL111      0.1544
     17 C         124.2713  152.6857  146.8895 C.3     1  UNL111      0.0656
     18 C         116.3206  152.0236  145.3754 C.3     1  UNL111     -0.0544
     19 C         117.0662  150.9655  147.4251 C.3     1  UNL111     -0.0544
     20 C         115.6476  153.7509  148.4634 C.3     1  UNL111      0.0320
     21 C         125.6778  152.6625  146.3551 C.2     1  UNL111      0.2193
     22 C         117.4027  156.4929  144.5071 C.3     1  UNL111      0.0468
     23 C         115.7179  150.8291  144.9816 C.3     1  UNL111     -0.0786
     24 C         116.4643  149.7725  147.0249 C.3     1  UNL111     -0.0786
     25 C         115.7932  149.7047  145.8038 C.3     1  UNL111     -0.0844
     26 C         127.9164  152.3040  146.9466 C.3     1  UNL111      0.0455
     27 H         121.7514  151.9953  146.6742 H       1  UNL111      0.1333
     28 H         119.9434  152.9329  148.2081 H       1  UNL111      0.0646
     29 H         119.7740  154.6770  148.2084 H       1  UNL111      0.0646
     30 H         118.8946  152.6130  144.4994 H       1  UNL111      0.0646
     31 H         119.4649  151.6234  145.8428 H       1  UNL111      0.0646
     32 H         121.6372  154.9574  146.6276 H       1  UNL111      0.0752
     33 H         122.0953  153.9389  148.0022 H       1  UNL111      0.0752
     34 H         121.2856  152.0195  144.3525 H       1  UNL111      0.0752
     35 H         121.1015  153.7840  144.4079 H       1  UNL111      0.0752
     36 H         123.4672  154.0131  145.3455 H       1  UNL111      0.0809
     37 H         123.4496  152.2796  144.9330 H       1  UNL111      0.0809
     38 H         124.0410  151.7041  147.3168 H       1  UNL111      0.0989
     39 H         124.2183  153.4490  147.6713 H       1  UNL111      0.0989
     40 H         116.2329  152.8993  144.7372 H       1  UNL111      0.0994
     41 H         117.5761  151.0086  148.3838 H       1  UNL111      0.0994
     42 H         115.2515  154.5730  149.0678 H       1  UNL111      0.0686
     43 H         115.7230  152.8660  149.0997 H       1  UNL111      0.0686
     44 H         114.9498  153.5722  147.6416 H       1  UNL111      0.0686
     45 H         116.3354  156.6344  144.3166 H       1  UNL111      0.1103
     46 H         117.9225  156.4267  143.5465 H       1  UNL111      0.1103
     47 H         117.7682  157.3445  145.0894 H       1  UNL111      0.1103
     48 H         115.1750  150.7758  144.0402 H       1  UNL111      0.0890
     49 H         116.5052  148.8961  147.6681 H       1  UNL111      0.0890
     50 H         115.3131  148.7767  145.4987 H       1  UNL111      0.0876
     51 H         128.5175  152.0325  147.8187 H       1  UNL111      0.1102
     52 H         128.2408  153.2870  146.5915 H       1  UNL111      0.1102
     53 H         128.0617  151.5437  146.1730 H       1  UNL111      0.1102
@<TRIPOS>UNITY_ATOM_ATTR
6 1
charge 1
@<TRIPOS>BOND
     1     1    13    1
     2     1    22    1
     3     2    13    2
     4     3    16    2
     5     4    21    1
     6     4    26    1
     7     5    21    2
     8     6    11    1
     9     6    12    1
    10     6    14    1
    11     7     8    1
    12     7    15    1
    13     7    16   am
    14     8     9    1
    15     8    10    1
    16     8    13    1
    17     9    11    1
    18    10    12    1
    19    14    17    1
    20    15    18   ar
    21    15    19   ar
    22    16    20    1
    23    17    21    1
    24    18    23   ar
    25    19    24   ar
    26    23    25   ar
    27    24    25   ar
    28     6    27    1
    29     9    28    1
    30     9    29    1
    31    10    30    1
    32    10    31    1
    33    11    32    1
    34    11    33    1
    35    12    34    1
    36    12    35    1
    37    14    36    1
    38    14    37    1
    39    17    38    1
    40    17    39    1
    41    18    40    1
    42    19    41    1
    43    20    42    1
    44    20    43    1
    45    20    44    1
    46    22    45    1
    47    22    46    1
    48    22    47    1
    49    23    48    1
    50    24    49    1
    51    25    50    1
    52    26    51    1
    53    26    52    1
    54    26    53    1
@<TRIPOS>MOLECULE
131560
 52 53 0 0 0
SMALL
GASTEIGER

@<TRIPOS>ATOM
      1 O         120.1834  155.7265  147.2690 O.3     1  UNL111     -0.5242
      2 O         118.5450  154.7254  148.5088 O.2     1  UNL111     -0.3272
      3 O         117.8374  155.3641  145.1439 O.2     1  UNL111     -0.3812
      4 O         126.1820  151.1268  146.3159 O.co2   1  UNL111     -0.5680
      5 O         126.5090  153.3900  146.5022 O.co2   1  UNL111     -0.5680
      6 N         122.2845  152.7384  146.4483 N.4     1  UNL111      0.4283
      7 N         118.0162  153.2775  146.0852 N.am    1  UNL111     -0.2518
      8 C         119.4303  153.5420  146.5505 C.3     1  UNL111      0.1416
      9 C         120.0401  152.3715  147.3714 C.3     1  UNL111      0.0011
     10 C         120.3417  153.7999  145.3239 C.3     1  UNL111      0.0011
     11 C         121.5013  152.5923  147.7171 C.3     1  UNL111     -0.0301
     12 C         121.8306  153.9083  145.6292 C.3     1  UNL111     -0.0301
     13 C         119.3036  154.7282  147.5448 C.2     1  UNL111      0.2494
     14 C         123.7870  152.7950  146.7611 C.3     1  UNL111     -0.0297
     15 C         117.4172  152.0270  146.3639 C.3     1  UNL111      0.0036
     16 C         117.3178  154.2735  145.3881 C.2     1  UNL111      0.1568
     17 C         124.5712  152.5864  145.4884 C.3     1  UNL111     -0.0039
     18 C         115.8859  153.9653  144.9606 C.3     1  UNL111      0.0345
     19 C         117.4387  151.0157  145.3992 C.3     1  UNL111     -0.0544
     20 C         116.8092  151.8080  147.6031 C.3     1  UNL111     -0.0544
     21 C         125.9150  152.3430  146.1380 C.2     1  UNL111      0.0273
     22 C         115.2195  155.1490  144.2780 C.3     1  UNL111     -0.0445
     23 C         120.0559  156.8736  148.1144 C.3     1  UNL111      0.0468
     24 C         116.8575  149.7795  145.6814 C.3     1  UNL111     -0.0786
     25 C         116.2294  150.5704  147.8797 C.3     1  UNL111     -0.0786
     26 C         116.2555  149.5574  146.9206 C.3     1  UNL111     -0.0844
     27 H         122.1780  151.8762  145.8955 H       1  UNL111      0.1327
     28 H         119.9654  151.4323  146.8083 H       1  UNL111      0.0646
     29 H         119.4937  152.2211  148.3104 H       1  UNL111      0.0646
     30 H         120.0576  154.7125  144.7907 H       1  UNL111      0.0646
     31 H         120.1980  152.9797  144.6065 H       1  UNL111      0.0646
     32 H         121.6657  153.4869  148.3271 H       1  UNL111      0.0752
     33 H         121.8913  151.7182  148.2499 H       1  UNL111      0.0752
     34 H         122.3881  153.8952  144.6876 H       1  UNL111      0.0752
     35 H         122.0948  154.8195  146.1722 H       1  UNL111      0.0752
     36 H         123.9654  152.0030  147.4995 H       1  UNL111      0.0763
     37 H         123.9749  153.7676  147.2326 H       1  UNL111      0.0763
     38 H         124.5981  153.4700  144.8449 H       1  UNL111      0.0678
     39 H         124.2367  151.7189  144.9115 H       1  UNL111      0.0678
     40 H         115.2980  153.6921  145.8429 H       1  UNL111      0.0735
     41 H         115.8955  153.1204  144.2650 H       1  UNL111      0.0735
     42 H         117.8995  151.1809  144.4292 H       1  UNL111      0.0994
     43 H         116.7762  152.5962  148.3526 H       1  UNL111      0.0994
     44 H         115.1807  156.0167  144.9449 H       1  UNL111      0.0319
     45 H         114.1953  154.8942  143.9884 H       1  UNL111      0.0319
     46 H         115.7666  155.4422  143.3758 H       1  UNL111      0.0319
     47 H         120.7537  157.6356  147.7567 H       1  UNL111      0.1103
     48 H         120.3199  156.6157  149.1446 H       1  UNL111      0.1103
     49 H         119.0411  157.2804  148.0618 H       1  UNL111      0.1103
     50 H         116.8674  148.9883  144.9351 H       1  UNL111      0.0890
     51 H         115.7514  150.3964  148.8411 H       1  UNL111      0.0890
     52 H         115.7988  148.5940  147.1375 H       1  UNL111      0.0876
@<TRIPOS>UNITY_ATOM_ATTR
4 1
charge -1
6 1
charge 1
@<TRIPOS>BOND
     1     1    13    1
     2     1    23    1
     3     2    13    2
     4     3    16    2
     5     4    21   ar
     6     5    21   ar
     7     6    11    1
     8     6    12    1
     9     6    14    1
    10     7     8    1
    11     7    15    1
    12     7    16   am
    13     8     9    1
    14     8    10    1
    15     8    13    1
    16     9    11    1
    17    10    12    1
    18    14    17    1
    19    15    19   ar
    20    15    20   ar
    21    16    18    1
    22    17    21    1
    23    18    22    1
    24    19    24   ar
    25    20    25   ar
    26    24    26   ar
    27    25    26   ar
    28     6    27    1
    29     9    28    1
    30     9    29    1
    31    10    30    1
    32    10    31    1
    33    11    32    1
    34    11    33    1
    35    12    34    1
    36    12    35    1
    37    14    36    1
    38    14    37    1
    39    17    38    1
    40    17    39    1
    41    18    40    1
    42    18    41    1
    43    19    42    1
    44    20    43    1
    45    22    44    1
    46    22    45    1
    47    22    46    1
    48    23    47    1
    49    23    48    1
    50    23    49    1
    51    24    50    1
    52    25    51    1
    53    26    52    1
@<TRIPOS>MOLECULE
125347258
 59 60 0 0 0
SMALL
GASTEIGER

@<TRIPOS>ATOM
      1 O         118.0077  151.6027  148.4540 O.3     1  UNL111     -0.5242
      2 O         120.2254  151.0609  148.3325 O.2     1  UNL111     -0.3272
      3 O         117.6980  150.9048  145.4868 O.2     1  UNL111     -0.3811
      4 O         126.8585  153.2414  144.8993 O.3     1  UNL111     -0.5299
      5 O         126.4814  153.3117  147.1671 O.2     1  UNL111     -0.3376
      6 N         122.2900  153.3425  146.5638 N.4     1  UNL111      0.4301
      7 N         117.9845  153.0543  146.2382 N.am    1  UNL111     -0.2517
      8 C         119.3602  152.7374  146.7809 C.3     1  UNL111      0.1417
      9 C         120.0540  153.9667  147.4389 C.3     1  UNL111      0.0011
     10 C         120.2695  152.2307  145.6305 C.3     1  UNL111      0.0011
     11 C         121.5179  153.7500  147.7954 C.3     1  UNL111     -0.0296
     12 C         121.7406  152.0662  145.9832 C.3     1  UNL111     -0.0296
     13 C         119.2477  151.6661  147.9022 C.2     1  UNL111      0.2494
     14 C         123.7843  153.2467  146.8901 C.3     1  UNL111     -0.0107
     15 C         117.4659  154.3645  146.3678 C.3     1  UNL111      0.0036
     16 C         117.2410  152.0430  145.6087 C.2     1  UNL111      0.1576
     17 C         124.6314  153.1939  145.6263 C.3     1  UNL111      0.0656
     18 C         115.8438  152.3969  145.1055 C.3     1  UNL111      0.0363
     19 C         116.8808  154.7690  147.5708 C.3     1  UNL111     -0.0544
     20 C         117.5426  155.2507  145.2886 C.3     1  UNL111     -0.0544
     21 C         115.1181  151.1875  144.5170 C.3     1  UNL111     -0.0412
     22 C         126.0841  153.2555  146.0134 C.2     1  UNL111      0.2193
     23 C         117.8622  150.6294  149.4914 C.3     1  UNL111      0.0468
     24 C         116.3810  156.0650  147.6960 C.3     1  UNL111     -0.0786
     25 C         117.0426  156.5462  145.4200 C.3     1  UNL111     -0.0786
     26 C         116.4649  156.9526  146.6230 C.3     1  UNL111     -0.0844
     27 C         113.7315  151.5590  144.0171 C.3     1  UNL111     -0.0653
     28 C         128.2653  153.2936  145.1582 C.3     1  UNL111      0.0455
     29 H         122.1818  154.0937  145.8675 H       1  UNL111      0.1333
     30 H         119.5279  154.2582  148.3564 H       1  UNL111      0.0646
     31 H         120.0131  154.8284  146.7604 H       1  UNL111      0.0646
     32 H         120.1905  152.9293  144.7859 H       1  UNL111      0.0646
     33 H         119.9375  151.2595  145.2522 H       1  UNL111      0.0646
     34 H         121.9494  154.6941  148.1470 H       1  UNL111      0.0752
     35 H         121.6758  152.9913  148.5669 H       1  UNL111      0.0752
     36 H         121.9324  151.2571  146.6928 H       1  UNL111      0.0752
     37 H         122.3009  151.8559  145.0673 H       1  UNL111      0.0752
     38 H         123.9256  152.3645  147.5254 H       1  UNL111      0.0809
     39 H         124.0302  154.1427  147.4722 H       1  UNL111      0.0809
     40 H         124.4036  154.0467  144.9783 H       1  UNL111      0.0989
     41 H         124.4659  152.2614  145.0790 H       1  UNL111      0.0989
     42 H         115.9332  153.1678  144.3330 H       1  UNL111      0.0746
     43 H         115.2577  152.7980  145.9396 H       1  UNL111      0.0746
     44 H         116.7888  154.0798  148.4065 H       1  UNL111      0.0994
     45 H         117.9786  154.9416  144.3425 H       1  UNL111      0.0994
     46 H         115.0311  150.3988  145.2738 H       1  UNL111      0.0369
     47 H         115.7003  150.7690  143.6872 H       1  UNL111      0.0369
     48 H         116.8142  150.6215  149.8031 H       1  UNL111      0.1103
     49 H         118.4801  150.8996  150.3530 H       1  UNL111      0.1103
     50 H         118.1232  149.6325  149.1228 H       1  UNL111      0.1103
     51 H         115.9118  156.3818  148.6252 H       1  UNL111      0.0890
     52 H         117.0895  157.2388  144.5824 H       1  UNL111      0.0890
     53 H         116.0642  157.9599  146.7202 H       1  UNL111      0.0876
     54 H         113.1115  151.9462  144.8319 H       1  UNL111      0.0262
     55 H         113.2317  150.6804  143.5976 H       1  UNL111      0.0262
     56 H         113.7882  152.3231  143.2351 H       1  UNL111      0.0262
     57 H         128.7866  153.2883  144.1970 H       1  UNL111      0.1102
     58 H         128.5797  152.4153  145.7304 H       1  UNL111      0.1102
     59 H         128.5221  154.2157  145.6887 H       1  UNL111      0.1102
@<TRIPOS>UNITY_ATOM_ATTR
6 1
charge 1
@<TRIPOS>BOND
     1     1    13    1
     2     1    23    1
     3     2    13    2
     4     3    16    2
     5     4    22    1
     6     4    28    1
     7     5    22    2
     8     6    11    1
     9     6    12    1
    10     6    14    1
    11     7     8    1
    12     7    15    1
    13     7    16   am
    14     8     9    1
    15     8    10    1
    16     8    13    1
    17     9    11    1
    18    10    12    1
    19    14    17    1
    20    15    19   ar
    21    15    20   ar
    22    16    18    1
    23    17    22    1
    24    18    21    1
    25    19    24   ar
    26    20    25   ar
    27    21    27    1
    28    24    26   ar
    29    25    26   ar
    30     6    29    1
    31     9    30    1
    32     9    31    1
    33    10    32    1
    34    10    33    1
    35    11    34    1
    36    11    35    1
    37    12    36    1
    38    12    37    1
    39    14    38    1
    40    14    39    1
    41    17    40    1
    42    17    41    1
    43    18    42    1
    44    18    43    1
    45    19    44    1
    46    20    45    1
    47    21    46    1
    48    21    47    1
    49    23    48    1
    50    23    49    1
    51    23    50    1
    52    24    51    1
    53    25    52    1
    54    26    53    1
    55    27    54    1
    56    27    55    1
    57    27    56    1
    58    28    57    1
    59    28    58    1
    60    28    59    1
@<TRIPOS>MOLECULE
24779916
 51 52 0 0 0
SMALL
GASTEIGER

@<TRIPOS>ATOM
      1 O         122.7242  155.5294  147.0909 O.2     1  UNL111     -0.3811
      2 O         113.2293  151.9546  146.5863 O.3     1  UNL111     -0.5299
      3 O         113.6210  154.2190  146.4758 O.2     1  UNL111     -0.3376
      4 N         117.8061  153.5772  146.7079 N.4     1  UNL111      0.4302
      5 N         122.1449  153.3792  146.5503 N.am    1  UNL111     -0.2555
      6 N         120.6625  155.4570  144.1353 N.1     1  UNL111     -0.2806
      7 C         120.7425  153.7825  146.1814 C.3     1  UNL111      0.1308
      8 C         119.8518  152.5854  145.7227 C.3     1  UNL111     -0.0021
      9 C         120.0332  154.4259  147.4041 C.3     1  UNL111     -0.0021
     10 C         118.3997  152.9683  145.4635 C.3     1  UNL111     -0.0297
     11 C         118.5822  154.8004  147.1405 C.3     1  UNL111     -0.0297
     12 C         116.3180  153.9220  146.5483 C.3     1  UNL111     -0.0107
     13 C         120.7784  154.7488  145.0462 C.1     1  UNL111      0.0750
     14 C         122.5336  152.0260  146.4150 C.3     1  UNL111      0.0034
     15 C         123.0647  154.3523  146.9679 C.2     1  UNL111      0.1567
     16 C         115.4605  152.6640  146.5256 C.3     1  UNL111      0.0656
     17 C         124.4923  153.9012  147.2630 C.3     1  UNL111      0.0346
     18 C         122.5225  151.1887  147.5348 C.3     1  UNL111     -0.0542
     19 C         122.9160  151.5306  145.1650 C.3     1  UNL111     -0.0542
     20 C         114.0099  153.0625  146.5251 C.2     1  UNL111      0.2193
     21 C         125.3965  155.0608  147.6486 C.3     1  UNL111     -0.0445
     22 C         122.8817  149.8483  147.3980 C.3     1  UNL111     -0.0786
     23 C         123.2750  150.1894  145.0354 C.3     1  UNL111     -0.0786
     24 C         123.2541  149.3495  146.1494 C.3     1  UNL111     -0.0844
     25 C         111.8231  152.2223  146.5914 C.3     1  UNL111      0.0455
     26 H         117.8630  152.8911  147.4754 H       1  UNL111      0.1334
     27 H         119.8592  151.7963  146.4860 H       1  UNL111      0.0650
     28 H         120.2437  152.1400  144.7997 H       1  UNL111      0.0650
     29 H         120.5355  155.3382  147.7390 H       1  UNL111      0.0650
     30 H         120.0780  153.7290  148.2525 H       1  UNL111      0.0650
     31 H         118.2847  153.6872  144.6457 H       1  UNL111      0.0754
     32 H         117.8247  152.0687  145.2271 H       1  UNL111      0.0754
     33 H         118.1203  155.1664  148.0640 H       1  UNL111      0.0754
     34 H         118.4727  155.5625  146.3615 H       1  UNL111      0.0754
     35 H         116.2161  154.5183  145.6342 H       1  UNL111      0.0809
     36 H         116.0510  154.5463  147.4090 H       1  UNL111      0.0809
     37 H         115.6567  152.0548  147.4144 H       1  UNL111      0.0989
     38 H         115.6505  152.0718  145.6259 H       1  UNL111      0.0989
     39 H         124.9056  153.4131  146.3745 H       1  UNL111      0.0735
     40 H         124.4758  153.1816  148.0875 H       1  UNL111      0.0735
     41 H         122.2483  151.5684  148.5155 H       1  UNL111      0.0995
     42 H         122.9561  152.1787  144.2925 H       1  UNL111      0.0995
     43 H         125.4491  155.8026  146.8449 H       1  UNL111      0.0319
     44 H         126.4106  154.7018  147.8497 H       1  UNL111      0.0319
     45 H         125.0280  155.5648  148.5482 H       1  UNL111      0.0319
     46 H         122.8859  149.1908  148.2650 H       1  UNL111      0.0890
     47 H         123.5857  149.7978  144.0687 H       1  UNL111      0.0890
     48 H         123.5455  148.3056  146.0467 H       1  UNL111      0.0876
     49 H         111.2972  151.2659  146.6575 H       1  UNL111      0.1102
     50 H         111.5274  152.7199  145.6627 H       1  UNL111      0.1102
     51 H         111.5531  152.8291  147.4612 H       1  UNL111      0.1102
@<TRIPOS>UNITY_ATOM_ATTR
4 1
charge 1
@<TRIPOS>BOND
     1     1    15    2
     2     2    20    1
     3     2    25    1
     4     3    20    2
     5     4    10    1
     6     4    11    1
     7     4    12    1
     8     5     7    1
     9     5    14    1
    10     5    15   am
    11     6    13    3
    12     7     8    1
    13     7     9    1
    14     7    13    1
    15     8    10    1
    16     9    11    1
    17    12    16    1
    18    14    18   ar
    19    14    19   ar
    20    15    17    1
    21    16    20    1
    22    17    21    1
    23    18    22   ar
    24    19    23   ar
    25    22    24   ar
    26    23    24   ar
    27     4    26    1
    28     8    27    1
    29     8    28    1
    30     9    29    1
    31     9    30    1
    32    10    31    1
    33    10    32    1
    34    11    33    1
    35    11    34    1
    36    12    35    1
    37    12    36    1
    38    16    37    1
    39    16    38    1
    40    17    39    1
    41    17    40    1
    42    18    41    1
    43    19    42    1
    44    21    43    1
    45    21    44    1
    46    21    45    1
    47    22    46    1
    48    23    47    1
    49    24    48    1
    50    25    49    1
    51    25    50    1
    52    25    51    1
@<TRIPOS>MOLECULE
165361620
 62 63 0 0 0
SMALL
GASTEIGER

@<TRIPOS>ATOM
      1 O         117.5138  154.7032  144.8845 O.3     1  UNL111     -0.5217
      2 O         119.4444  155.7505  145.5281 O.2     1  UNL111     -0.3270
      3 O         116.7123  154.8733  147.9120 O.2     1  UNL111     -0.3812
      4 O         126.4314  152.2662  146.4002 O.3     1  UNL111     -0.5274
      5 O         125.9465  154.4711  146.8453 O.2     1  UNL111     -0.3374
      6 N         121.8021  153.5595  147.0547 N.4     1  UNL111      0.4301
      7 N         117.5236  152.9778  146.9100 N.am    1  UNL111     -0.2518
      8 C         118.8458  153.6426  146.6085 C.3     1  UNL111      0.1418
      9 C         119.8266  152.7140  145.8346 C.3     1  UNL111      0.0012
     10 C         119.5291  154.0863  147.9282 C.3     1  UNL111      0.0012
     11 C         121.2318  153.2763  145.6888 C.3     1  UNL111     -0.0296
     12 C         120.9625  154.5819  147.7844 C.3     1  UNL111     -0.0296
     13 C         118.6126  154.8595  145.6684 C.2     1  UNL111      0.2503
     14 C         123.2656  154.0113  146.9928 C.3     1  UNL111     -0.0107
     15 C         117.2999  151.6446  146.4935 C.3     1  UNL111      0.0036
     16 C         116.5273  153.7001  147.5829 C.2     1  UNL111      0.1568
     17 C         124.1849  152.8308  146.7128 C.3     1  UNL111      0.0658
     18 C         115.2116  152.9861  147.8770 C.3     1  UNL111      0.0345
     19 C         117.6194  150.5864  147.3498 C.3     1  UNL111     -0.0544
     20 C         116.7676  151.3913  145.2266 C.3     1  UNL111     -0.0544
     21 C         117.2683  155.7305  143.9116 C.3     1  UNL111      0.0476
     22 C         125.6089  153.3111  146.6700 C.2     1  UNL111      0.2202
     23 C         114.2476  153.8538  148.6695 C.3     1  UNL111     -0.0445
     24 C         117.4195  149.2720  146.9279 C.3     1  UNL111     -0.0786
     25 C         116.5680  150.0754  144.8110 C.3     1  UNL111     -0.0786
     26 C         116.8973  149.0179  145.6591 C.3     1  UNL111     -0.0844
     27 C         116.5402  155.0961  142.7423 C.3     1  UNL111     -0.0318
     28 C         127.8229  152.6054  146.3029 C.3     1  UNL111      0.0463
     29 C         128.5966  151.3321  146.0219 C.3     1  UNL111     -0.0319
     30 H         121.7782  152.6946  147.6132 H       1  UNL111      0.1333
     31 H         119.4412  152.5007  144.8294 H       1  UNL111      0.0646
     32 H         119.9212  151.7501  146.3493 H       1  UNL111      0.0646
     33 H         119.5234  153.2397  148.6286 H       1  UNL111      0.0646
     34 H         118.9705  154.8889  148.4195 H       1  UNL111      0.0646
     35 H         121.8680  152.5252  145.2125 H       1  UNL111      0.0752
     36 H         121.2807  154.1941  145.0965 H       1  UNL111      0.0752
     37 H         121.0486  155.5334  147.2533 H       1  UNL111      0.0752
     38 H         121.4045  154.7057  148.7797 H       1  UNL111      0.0752
     39 H         123.5040  154.4484  147.9696 H       1  UNL111      0.0809
     40 H         123.3346  154.7957  146.2303 H       1  UNL111      0.0809
     41 H         123.9575  152.3707  145.7473 H       1  UNL111      0.0989
     42 H         124.0901  152.0804  147.5049 H       1  UNL111      0.0989
     43 H         115.4152  152.0778  148.4526 H       1  UNL111      0.0735
     44 H         114.7401  152.7066  146.9293 H       1  UNL111      0.0735
     45 H         118.0100  150.7733  148.3461 H       1  UNL111      0.0994
     46 H         116.4937  152.2073  144.5626 H       1  UNL111      0.0994
     47 H         118.1987  156.1844  143.5540 H       1  UNL111      0.1150
     48 H         116.6431  156.5007  144.3739 H       1  UNL111      0.1150
     49 H         114.6822  154.1453  149.6315 H       1  UNL111      0.0319
     50 H         113.3188  153.3091  148.8656 H       1  UNL111      0.0319
     51 H         113.9985  154.7685  148.1217 H       1  UNL111      0.0319
     52 H         117.6566  148.4418  147.5897 H       1  UNL111      0.0890
     53 H         116.1444  149.8716  143.8297 H       1  UNL111      0.0890
     54 H         116.7315  147.9921  145.3351 H       1  UNL111      0.0876
     55 H         117.1533  154.3070  142.2936 H       1  UNL111      0.0426
     56 H         116.3082  155.8404  141.9756 H       1  UNL111      0.0426
     57 H         115.6093  154.6248  143.0742 H       1  UNL111      0.0426
     58 H         128.1626  153.0483  147.2455 H       1  UNL111      0.1148
     59 H         127.9690  153.3184  145.4841 H       1  UNL111      0.1148
     60 H         128.4454  150.6045  146.8263 H       1  UNL111      0.0426
     61 H         129.6664  151.5373  145.9275 H       1  UNL111      0.0426
     62 H         128.2432  150.8619  145.0981 H       1  UNL111      0.0426
@<TRIPOS>UNITY_ATOM_ATTR
6 1
charge 1
@<TRIPOS>BOND
     1     1    13    1
     2     1    21    1
     3     2    13    2
     4     3    16    2
     5     4    22    1
     6     4    28    1
     7     5    22    2
     8     6    11    1
     9     6    12    1
    10     6    14    1
    11     7     8    1
    12     7    15    1
    13     7    16   am
    14     8     9    1
    15     8    10    1
    16     8    13    1
    17     9    11    1
    18    10    12    1
    19    14    17    1
    20    15    19   ar
    21    15    20   ar
    22    16    18    1
    23    17    22    1
    24    18    23    1
    25    19    24   ar
    26    20    25   ar
    27    21    27    1
    28    24    26   ar
    29    25    26   ar
    30    28    29    1
    31     6    30    1
    32     9    31    1
    33     9    32    1
    34    10    33    1
    35    10    34    1
    36    11    35    1
    37    11    36    1
    38    12    37    1
    39    12    38    1
    40    14    39    1
    41    14    40    1
    42    17    41    1
    43    17    42    1
    44    18    43    1
    45    18    44    1
    46    19    45    1
    47    20    46    1
    48    21    47    1
    49    21    48    1
    50    23    49    1
    51    23    50    1
    52    23    51    1
    53    24    52    1
    54    25    53    1
    55    26    54    1
    56    27    55    1
    57    27    56    1
    58    27    57    1
    59    28    58    1
    60    28    59    1
    61    29    60    1
    62    29    61    1
    63    29    62    1
@<TRIPOS>MOLECULE
16739772
 48 49 0 0 0
SMALL
GASTEIGER

@<TRIPOS>ATOM
      1 O         117.3797  155.6850  146.4028 O.3     1  UNL111     -0.5247
      2 O         119.1486  155.2793  147.8063 O.2     1  UNL111     -0.3281
      3 O         126.0579  151.4449  146.7169 O.3     1  UNL111     -0.5299
      4 O         125.8485  153.7283  146.5313 O.2     1  UNL111     -0.3376
      5 N         121.6823  153.3746  145.8576 N.4     1  UNL111      0.4300
      6 N         117.5197  153.2201  145.3084 N.pl3   1  UNL111     -0.3363
      7 C         118.7463  153.7563  145.9426 C.3     1  UNL111      0.1204
      8 C         119.4744  152.6356  146.7150 C.3     1  UNL111     -0.0032
      9 C         119.6363  154.2640  144.7886 C.3     1  UNL111     -0.0032
     10 C         120.9129  152.9562  147.0859 C.3     1  UNL111     -0.0302
     11 C         121.0534  154.5944  145.2259 C.3     1  UNL111     -0.0302
     12 C         123.1659  153.6182  146.1447 C.3     1  UNL111     -0.0107
     13 C         118.4418  154.9653  146.8554 C.2     1  UNL111      0.2443
     14 C         123.9081  152.3082  146.3713 C.3     1  UNL111      0.0656
     15 C         116.6411  152.3255  145.9040 C.3     1  UNL111     -0.0251
     16 C         116.0648  151.3336  145.1010 C.3     1  UNL111     -0.0601
     17 C         116.2160  152.4251  147.2320 C.3     1  UNL111     -0.0601
     18 C         125.3728  152.6033  146.5448 C.2     1  UNL111      0.2193
     19 C         117.0472  156.8239  147.2018 C.3     1  UNL111      0.0468
     20 C         115.1461  150.4207  145.6245 C.3     1  UNL111     -0.0793
     21 C         115.2923  151.5172  147.7605 C.3     1  UNL111     -0.0793
     22 C         114.7645  150.5092  146.9589 C.3     1  UNL111     -0.0845
     23 C         127.4671  151.6137  146.9018 C.3     1  UNL111      0.0455
     24 H         121.6306  152.6102  145.1675 H       1  UNL111      0.1333
     25 H         117.0268  153.8699  144.6918 H       1  UNL111      0.1777
     26 H         119.4766  151.7175  146.1106 H       1  UNL111      0.0639
     27 H         118.9431  152.3923  147.6424 H       1  UNL111      0.0639
     28 H         119.1926  155.1552  144.3255 H       1  UNL111      0.0639
     29 H         119.6816  153.5036  143.9962 H       1  UNL111      0.0639
     30 H         121.0061  153.7525  147.8293 H       1  UNL111      0.0752
     31 H         121.3888  152.0557  147.4843 H       1  UNL111      0.0752
     32 H         121.6577  154.8571  144.3509 H       1  UNL111      0.0752
     33 H         121.0998  155.4143  145.9501 H       1  UNL111      0.0752
     34 H         123.2268  154.2926  147.0067 H       1  UNL111      0.0809
     35 H         123.5731  154.1330  145.2665 H       1  UNL111      0.0809
     36 H         123.7824  151.6458  145.5082 H       1  UNL111      0.0989
     37 H         123.5549  151.8035  147.2750 H       1  UNL111      0.0989
     38 H         116.3442  151.2527  144.0530 H       1  UNL111      0.0986
     39 H         116.5721  153.2174  147.8820 H       1  UNL111      0.0986
     40 H         116.1752  157.3088  146.7545 H       1  UNL111      0.1103
     41 H         117.8764  157.5381  147.2107 H       1  UNL111      0.1103
     42 H         116.7904  156.5139  148.2194 H       1  UNL111      0.1103
     43 H         114.7244  149.6470  144.9877 H       1  UNL111      0.0890
     44 H         114.9725  151.6063  148.7961 H       1  UNL111      0.0890
     45 H         114.0439  149.8053  147.3684 H       1  UNL111      0.0876
     46 H         127.9148  150.6222  147.0112 H       1  UNL111      0.1102
     47 H         127.6644  152.1880  147.8122 H       1  UNL111      0.1102
     48 H         127.9115  152.1025  146.0294 H       1  UNL111      0.1102
@<TRIPOS>UNITY_ATOM_ATTR
5 1
charge 1
@<TRIPOS>BOND
     1     1    13    1
     2     1    19    1
     3     2    13    2
     4     3    18    1
     5     3    23    1
     6     4    18    2
     7     5    10    1
     8     5    11    1
     9     5    12    1
    10     6     7    1
    11     6    15    1
    12     7     8    1
    13     7     9    1
    14     7    13    1
    15     8    10    1
    16     9    11    1
    17    12    14    1
    18    14    18    1
    19    15    16   ar
    20    15    17   ar
    21    16    20   ar
    22    17    21   ar
    23    20    22   ar
    24    21    22   ar
    25     5    24    1
    26     6    25    1
    27     8    26    1
    28     8    27    1
    29     9    28    1
    30     9    29    1
    31    10    30    1
    32    10    31    1
    33    11    32    1
    34    11    33    1
    35    12    34    1
    36    12    35    1
    37    14    36    1
    38    14    37    1
    39    16    38    1
    40    17    39    1
    41    19    40    1
    42    19    41    1
    43    19    42    1
    44    20    43    1
    45    21    44    1
    46    22    45    1
    47    23    46    1
    48    23    47    1
    49    23    48    1
@<TRIPOS>MOLECULE
165361614
 59 60 0 0 0
SMALL
GASTEIGER

@<TRIPOS>ATOM
      1 F         116.3362  158.1252  146.7387 F       1  UNL111     -0.2904
      2 O         117.5638  151.3592  148.3219 O.3     1  UNL111     -0.5242
      3 O         119.6547  150.4948  147.9936 O.2     1  UNL111     -0.3272
      4 O         116.8551  150.6728  145.4155 O.2     1  UNL111     -0.3812
      5 O         126.3999  154.0849  146.2304 O.3     1  UNL111     -0.5274
      6 O         126.0213  151.8164  146.1794 O.2     1  UNL111     -0.3374
      7 N         121.8321  152.4499  145.9739 N.4     1  UNL111      0.4301
      8 N         117.5208  152.7669  146.0767 N.am    1  UNL111     -0.2513
      9 C         118.8855  152.2594  146.4897 C.3     1  UNL111      0.1417
     10 C         119.5954  151.6119  145.2709 C.3     1  UNL111      0.0011
     11 C         119.8064  153.3848  147.0475 C.3     1  UNL111      0.0011
     12 C         121.0580  151.2490  145.4849 C.3     1  UNL111     -0.0296
     13 C         121.2547  152.9681  147.2648 C.3     1  UNL111     -0.0296
     14 C         118.7353  151.2299  147.6456 C.2     1  UNL111      0.2494
     15 C         123.3215  152.1052  146.0918 C.3     1  UNL111     -0.0107
     16 C         117.2018  154.1350  146.2443 C.3     1  UNL111      0.0084
     17 C         116.5810  151.8667  145.5490 C.2     1  UNL111      0.1569
     18 C         124.1744  153.3649  146.1493 C.3     1  UNL111      0.0658
     19 C         115.2093  152.4159  145.1693 C.3     1  UNL111      0.0345
     20 C         116.7446  154.5992  147.4830 C.3     1  UNL111     -0.0389
     21 C         117.3514  155.0181  145.1679 C.3     1  UNL111     -0.0389
     22 C         125.6257  152.9715  146.1855 C.2     1  UNL111      0.2202
     23 C         114.2807  151.3348  144.6403 C.3     1  UNL111     -0.0445
     24 C         117.3900  150.4366  149.4008 C.3     1  UNL111      0.0468
     25 C         116.4495  155.9527  147.6471 C.3     1  UNL111     -0.0166
     26 C         117.0573  156.3709  145.3394 C.3     1  UNL111     -0.0166
     27 C         116.6119  156.8257  146.5765 C.3     1  UNL111      0.0844
     28 C         127.8118  153.8302  146.2859 C.3     1  UNL111      0.0463
     29 C         128.5302  155.1649  146.3198 C.3     1  UNL111     -0.0319
     30 H         121.7499  153.1799  145.2523 H       1  UNL111      0.1333
     31 H         119.5292  152.3016  144.4180 H       1  UNL111      0.0646
     32 H         119.0953  150.6913  144.9561 H       1  UNL111      0.0646
     33 H         119.4185  153.7582  148.0036 H       1  UNL111      0.0646
     34 H         119.8200  154.2361  146.3554 H       1  UNL111      0.0646
     35 H         121.2086  150.4337  146.1975 H       1  UNL111      0.0752
     36 H         121.5009  150.9518  144.5274 H       1  UNL111      0.0752
     37 H         121.8369  153.8465  147.5576 H       1  UNL111      0.0752
     38 H         121.3812  152.2004  148.0329 H       1  UNL111      0.0752
     39 H         123.5786  151.5184  145.2020 H       1  UNL111      0.0809
     40 H         123.4425  151.4717  146.9781 H       1  UNL111      0.0809
     41 H         123.9598  153.9477  147.0494 H       1  UNL111      0.0989
     42 H         123.9996  153.9832  145.2624 H       1  UNL111      0.0989
     43 H         115.3313  153.1800  144.3954 H       1  UNL111      0.0735
     44 H         114.7509  152.8744  146.0516 H       1  UNL111      0.0735
     45 H         116.5991  153.9169  148.3170 H       1  UNL111      0.1025
     46 H         117.6865  154.6636  144.1967 H       1  UNL111      0.1025
     47 H         114.6978  150.8622  143.7449 H       1  UNL111      0.0319
     48 H         113.3082  151.7633  144.3787 H       1  UNL111      0.0319
     49 H         114.1198  150.5529  145.3897 H       1  UNL111      0.0319
     50 H         116.4136  150.6271  149.8544 H       1  UNL111      0.1103
     51 H         118.1620  150.5889  150.1614 H       1  UNL111      0.1103
     52 H         117.4077  149.4076  149.0288 H       1  UNL111      0.1103
     53 H         116.0852  156.3330  148.5974 H       1  UNL111      0.1105
     54 H         117.1617  157.0747  144.5185 H       1  UNL111      0.1105
     55 H         128.1198  153.2638  145.4000 H       1  UNL111      0.1148
     56 H         128.0458  153.2586  147.1908 H       1  UNL111      0.1148
     57 H         128.2907  155.7538  145.4281 H       1  UNL111      0.0426
     58 H         129.6134  155.0243  146.3700 H       1  UNL111      0.0426
     59 H         128.2090  155.7538  147.1854 H       1  UNL111      0.0426
@<TRIPOS>UNITY_ATOM_ATTR
7 1
charge 1
@<TRIPOS>BOND
     1     1    27    1
     2     2    14    1
     3     2    24    1
     4     3    14    2
     5     4    17    2
     6     5    22    1
     7     5    28    1
     8     6    22    2
     9     7    12    1
    10     7    13    1
    11     7    15    1
    12     8     9    1
    13     8    16    1
    14     8    17   am
    15     9    10    1
    16     9    11    1
    17     9    14    1
    18    10    12    1
    19    11    13    1
    20    15    18    1
    21    16    20   ar
    22    16    21   ar
    23    17    19    1
    24    18    22    1
    25    19    23    1
    26    20    25   ar
    27    21    26   ar
    28    25    27   ar
    29    26    27   ar
    30    28    29    1
    31     7    30    1
    32    10    31    1
    33    10    32    1
    34    11    33    1
    35    11    34    1
    36    12    35    1
    37    12    36    1
    38    13    37    1
    39    13    38    1
    40    15    39    1
    41    15    40    1
    42    18    41    1
    43    18    42    1
    44    19    43    1
    45    19    44    1
    46    20    45    1
    47    21    46    1
    48    23    47    1
    49    23    48    1
    50    23    49    1
    51    24    50    1
    52    24    51    1
    53    24    52    1
    54    25    53    1
    55    26    54    1
    56    28    55    1
    57    28    56    1
    58    29    57    1
    59    29    58    1
    60    29    59    1
@<TRIPOS>MOLECULE
12107
 22 22 0 0 0
SMALL
GASTEIGER

@<TRIPOS>ATOM
      1 O         121.7565  151.7993  146.4141 O.2     1  UNL1111    -0.3840
      2 N         120.5860  153.8194  146.4013 N.am    1  UNL1111    -0.2934
      3 C         119.2397  153.3993  146.4053 C.3     1  UNL1111    -0.0099
      4 C         122.9858  153.8698  146.3972 C.3     1  UNL1111     0.0325
      5 C         121.7213  153.0238  146.4058 C.2     1  UNL1111     0.1458
      6 C         118.2582  154.3999  146.4035 C.3     1  UNL1111    -0.0569
      7 C         118.8371  152.0629  146.4107 C.3     1  UNL1111    -0.0569
      8 C         124.2521  153.0328  146.4228 C.3     1  UNL1111    -0.0447
      9 C         116.9003  154.0690  146.4075 C.3     1  UNL1111    -0.0789
     10 C         117.4779  151.7315  146.4144 C.3     1  UNL1111    -0.0789
     11 C         116.5103  152.7330  146.4128 C.3     1  UNL1111    -0.0844
     12 H         120.7346  154.8203  146.3955 H       1  UNL1111     0.2039
     13 H         122.9673  154.5319  147.2704 H       1  UNL1111     0.0732
     14 H         122.9781  154.4949  145.4969 H       1  UNL1111     0.0732
     15 H         118.5338  155.4509  146.3995 H       1  UNL1111     0.0991
     16 H         119.5558  151.2495  146.4119 H       1  UNL1111     0.0991
     17 H         124.2918  152.4078  147.3211 H       1  UNL1111     0.0319
     18 H         125.1358  153.6781  146.4158 H       1  UNL1111     0.0319
     19 H         124.3043  152.3716  145.5515 H       1  UNL1111     0.0319
     20 H         116.1488  154.8541  146.4063 H       1  UNL1111     0.0890
     21 H         117.1801  150.6859  146.4184 H       1  UNL1111     0.0890
     22 H         115.4556  152.4708  146.4158 H       1  UNL1111     0.0876
@<TRIPOS>BOND
     1     1     5    2
     2     2     3    1
     3     2     5   am
     4     3     6   ar
     5     3     7   ar
     6     4     5    1
     7     4     8    1
     8     6     9   ar
     9     7    10   ar
    10     9    11   ar
    11    10    11   ar
    12     2    12    1
    13     4    13    1
    14     4    14    1
    15     6    15    1
    16     7    16    1
    17     8    17    1
    18     8    18    1
    19     8    19    1
    20     9    20    1
    21    10    21    1
    22    11    22    1
@<TRIPOS>MOLECULE
2724433
 57 59 0 0 0
SMALL
GASTEIGER

@<TRIPOS>ATOM
      1 O         119.6421  155.7831  147.5366 O.3     1  UNL111     -0.5242
      2 O         117.8375  154.7875  148.5240 O.2     1  UNL111     -0.3272
      3 O         117.7654  155.3742  145.0456 O.2     1  UNL111     -0.3812
      4 N         121.8591  152.7725  147.2216 N.4     1  UNL111      0.4303
      5 N         117.7256  153.3107  146.0442 N.am    1  UNL111     -0.2518
      6 C         119.0285  153.5752  146.7571 C.3     1  UNL111      0.1417
      7 C         119.4703  152.4180  147.6970 C.3     1  UNL111      0.0014
      8 C         120.1571  153.7965  145.7180 C.3     1  UNL111      0.0014
      9 C         120.8382  152.6493  148.3142 C.3     1  UNL111     -0.0287
     10 C         121.5607  153.9208  146.2964 C.3     1  UNL111     -0.0287
     11 C         118.7355  154.7814  147.6897 C.2     1  UNL111      0.2494
     12 C         123.2670  152.8430  147.7945 C.3     1  UNL111     -0.0143
     13 C         117.0682  152.0722  146.2288 C.3     1  UNL111      0.0036
     14 C         117.1833  154.3002  145.2104 C.2     1  UNL111      0.1568
     15 C         124.3355  152.6333  146.7574 C.3     1  UNL111     -0.0704
     16 C         115.8464  154.0078  144.5366 C.3     1  UNL111      0.0345
     17 C         117.2216  151.0562  145.2808 C.3     1  UNL111     -0.0544
     18 C         116.2663  151.8706  147.3555 C.3     1  UNL111     -0.0544
     19 C         124.5651  151.3569  146.2193 C.3     1  UNL111     -0.0746
     20 C         125.1024  153.7140  146.2955 C.3     1  UNL111     -0.0746
     21 C         115.3307  155.1954  143.7398 C.3     1  UNL111     -0.0445
     22 C         119.3355  156.9650  148.2850 C.3     1  UNL111      0.0468
     23 C         116.5782  149.8329  145.4687 C.3     1  UNL111     -0.0786
     24 C         115.6255  150.6456  147.5383 C.3     1  UNL111     -0.0786
     25 C         115.7834  149.6279  146.5971 C.3     1  UNL111     -0.0844
     26 C         125.5373  151.1701  145.2358 C.3     1  UNL111     -0.0834
     27 C         126.0729  153.5217  145.3115 C.3     1  UNL111     -0.0834
     28 C         126.2879  152.2519  144.7813 C.3     1  UNL111     -0.0861
     29 H         121.8414  151.9109  146.6589 H       1  UNL111      0.1352
     30 H         119.5021  151.4702  147.1439 H       1  UNL111      0.0646
     31 H         118.7557  152.2807  148.5175 H       1  UNL111      0.0646
     32 H         119.9842  154.6903  145.1111 H       1  UNL111      0.0646
     33 H         120.1496  152.9535  145.0127 H       1  UNL111      0.0646
     34 H         120.8834  153.5557  148.9273 H       1  UNL111      0.0756
     35 H         121.1191  151.7875  148.9294 H       1  UNL111      0.0756
     36 H         122.2862  153.8857  145.4775 H       1  UNL111      0.0756
     37 H         121.7184  154.8467  146.8556 H       1  UNL111      0.0756
     38 H         123.3492  152.0565  148.5544 H       1  UNL111      0.0876
     39 H         123.3672  153.8104  148.3008 H       1  UNL111      0.0876
     40 H         115.1067  153.7491  145.3012 H       1  UNL111      0.0735
     41 H         115.9678  153.1576  143.8582 H       1  UNL111      0.0735
     42 H         117.8265  151.2093  144.3913 H       1  UNL111      0.0994
     43 H         116.1206  152.6646  148.0853 H       1  UNL111      0.0994
     44 H         124.0079  150.4886  146.5656 H       1  UNL111      0.0924
     45 H         124.9629  154.7171  146.6952 H       1  UNL111      0.0924
     46 H         115.1885  156.0692  144.3843 H       1  UNL111      0.0319
     47 H         114.3702  154.9535  143.2746 H       1  UNL111      0.0319
     48 H         116.0337  155.4728  142.9474 H       1  UNL111      0.0319
     49 H         120.0624  157.7346  148.0115 H       1  UNL111      0.1103
     50 H         119.4251  156.7663  149.3573 H       1  UNL111      0.1103
     51 H         118.3338  157.3303  148.0374 H       1  UNL111      0.1103
     52 H         116.6825  149.0405  144.7306 H       1  UNL111      0.0890
     53 H         114.9905  150.4872  148.4074 H       1  UNL111      0.0890
     54 H         115.2725  148.6771  146.7365 H       1  UNL111      0.0876
     55 H         125.7211  150.1785  144.8261 H       1  UNL111      0.0880
     56 H         126.6702  154.3608  144.9593 H       1  UNL111      0.0880
     57 H         127.0503  152.1034  144.0188 H       1  UNL111      0.0874
@<TRIPOS>UNITY_ATOM_ATTR
4 1
charge 1
@<TRIPOS>BOND
     1     1    11    1
     2     1    22    1
     3     2    11    2
     4     3    14    2
     5     4     9    1
     6     4    10    1
     7     4    12    1
     8     5     6    1
     9     5    13    1
    10     5    14   am
    11     6     7    1
    12     6     8    1
    13     6    11    1
    14     7     9    1
    15     8    10    1
    16    12    15    1
    17    13    17   ar
    18    13    18   ar
    19    14    16    1
    20    15    19   ar
    21    15    20   ar
    22    16    21    1
    23    17    23   ar
    24    18    24   ar
    25    19    26   ar
    26    20    27   ar
    27    23    25   ar
    28    24    25   ar
    29    26    28   ar
    30    27    28   ar
    31     4    29    1
    32     7    30    1
    33     7    31    1
    34     8    32    1
    35     8    33    1
    36     9    34    1
    37     9    35    1
    38    10    36    1
    39    10    37    1
    40    12    38    1
    41    12    39    1
    42    16    40    1
    43    16    41    1
    44    17    42    1
    45    18    43    1
    46    19    44    1
    47    20    45    1
    48    21    46    1
    49    21    47    1
    50    21    48    1
    51    22    49    1
    52    22    50    1
    53    22    51    1
    54    23    52    1
    55    24    53    1
    56    25    54    1
    57    26    55    1
    58    27    56    1
    59    28    57    1
@<TRIPOS>MOLECULE
135391039
 52 54 0 0 0
SMALL
GASTEIGER

@<TRIPOS>ATOM
      1 O         119.6883  156.2492  146.1628 O.2     1  UNL111     -0.3189
      2 O         126.4347  152.0489  147.2736 O.3     1  UNL111     -0.5299
      3 O         126.0482  153.5711  145.5898 O.2     1  UNL111     -0.3376
      4 N         117.5673  153.4901  146.4339 N.pl3   1  UNL111     -0.2179
      5 N         121.8513  153.1630  146.0305 N.4     1  UNL111      0.4313
      6 N         117.4790  155.6701  146.4147 N.am    1  UNL111     -0.1792
      7 C         119.0339  153.8410  146.2841 C.3     1  UNL111      0.1687
      8 C         119.6078  153.3442  144.9631 C.3     1  UNL111      0.0159
      9 C         119.8585  153.4156  147.4920 C.3     1  UNL111      0.0159
     10 C         121.0913  153.6683  144.8215 C.3     1  UNL111     -0.0241
     11 C         121.3384  153.7471  147.3254 C.3     1  UNL111     -0.0241
     12 C         118.8504  155.3808  146.2687 C.2     1  UNL111      0.2634
     13 C         116.7803  154.5617  146.4994 C.2     1  UNL111      0.1125
     14 C         123.3664  153.4266  145.8330 C.3     1  UNL111     -0.0104
     15 C         117.0822  152.2161  146.3989 C.3     1  UNL111      0.0478
     16 C         115.3142  154.5889  146.6633 C.3     1  UNL111      0.0318
     17 C         124.2085  152.5990  146.7954 C.3     1  UNL111      0.0656
     18 C         116.5155  151.7130  145.2212 C.3     1  UNL111     -0.0296
     19 C         117.1562  151.3930  147.5262 C.3     1  UNL111     -0.0296
     20 C         114.9359  154.5974  148.1350 C.3     1  UNL111     -0.0417
     21 C         125.6611  152.8114  146.4639 C.2     1  UNL111      0.2193
     22 C         116.0414  150.4014  145.1693 C.3     1  UNL111     -0.0704
     23 C         116.6824  150.0806  147.4741 C.3     1  UNL111     -0.0704
     24 C         116.1291  149.5859  146.2951 C.3     1  UNL111     -0.0814
     25 C         127.8426  152.1794  147.0435 C.3     1  UNL111      0.0455
     26 H         121.7664  152.1329  146.0568 H       1  UNL111      0.1338
     27 H         117.0758  156.5983  146.4469 H       1  UNL111      0.3658
     28 H         119.0631  153.7789  144.1160 H       1  UNL111      0.0742
     29 H         119.4822  152.2569  144.8883 H       1  UNL111      0.0742
     30 H         119.7702  152.3339  147.6439 H       1  UNL111      0.0742
     31 H         119.4829  153.8919  148.4058 H       1  UNL111      0.0742
     32 H         121.5021  153.1625  143.9412 H       1  UNL111      0.0769
     33 H         121.2783  154.7436  144.7368 H       1  UNL111      0.0769
     34 H         121.5279  154.8247  147.3055 H       1  UNL111      0.0769
     35 H         121.9070  153.2988  148.1446 H       1  UNL111      0.0769
     36 H         123.5232  154.5047  145.9534 H       1  UNL111      0.0809
     37 H         123.5916  153.1481  144.7968 H       1  UNL111      0.0809
     38 H         114.8338  153.7431  146.1635 H       1  UNL111      0.0805
     39 H         114.9116  155.4908  146.1862 H       1  UNL111      0.0805
     40 H         123.9732  151.5349  146.6896 H       1  UNL111      0.0989
     41 H         124.0477  152.9109  147.8312 H       1  UNL111      0.0989
     42 H         116.4316  152.3312  144.3309 H       1  UNL111      0.1114
     43 H         117.5517  151.7628  148.4680 H       1  UNL111      0.1114
     44 H         115.2996  153.6982  148.6419 H       1  UNL111      0.0334
     45 H         113.8485  154.6393  148.2499 H       1  UNL111      0.0334
     46 H         115.3684  155.4649  148.6444 H       1  UNL111      0.0334
     47 H         115.5939  150.0117  144.2556 H       1  UNL111      0.0910
     48 H         116.7271  149.4418  148.3556 H       1  UNL111      0.0910
     49 H         115.7502  148.5644  146.2577 H       1  UNL111      0.0880
     50 H         128.3624  151.5293  147.7524 H       1  UNL111      0.1102
     51 H         128.1627  153.2115  147.2164 H       1  UNL111      0.1102
     52 H         128.0928  151.8594  146.0274 H       1  UNL111      0.1102
@<TRIPOS>UNITY_ATOM_ATTR
5 1
charge 1
6 1
charge 1
@<TRIPOS>BOND
     1     1    12    2
     2     2    21    1
     3     2    25    1
     4     3    21    2
     5     4     7    1
     6     4    13    1
     7     4    15    1
     8     5    10    1
     9     5    11    1
    10     5    14    1
    11     6    12   am
    12     6    13    2
    13     7     8    1
    14     7     9    1
    15     7    12    1
    16     8    10    1
    17     9    11    1
    18    13    16    1
    19    14    17    1
    20    15    18   ar
    21    15    19   ar
    22    16    20    1
    23    17    21    1
    24    18    22   ar
    25    19    23   ar
    26    22    24   ar
    27    23    24   ar
    28     5    26    1
    29     6    27    1
    30     8    28    1
    31     8    29    1
    32     9    30    1
    33     9    31    1
    34    10    32    1
    35    10    33    1
    36    11    34    1
    37    11    35    1
    38    14    36    1
    39    14    37    1
    40    16    38    1
    41    16    39    1
    42    17    40    1
    43    17    41    1
    44    18    42    1
    45    19    43    1
    46    20    44    1
    47    20    45    1
    48    20    46    1
    49    22    47    1
    50    23    48    1
    51    24    49    1
    52    25    50    1
    53    25    51    1
    54    25    52    1
@<TRIPOS>MOLECULE
24780059
 43 44 0 0 0
SMALL
GASTEIGER

@<TRIPOS>ATOM
      1 O         113.7369  154.5391  146.7415 O.3     1  UNL111     -0.5299
      2 O         114.0370  152.2588  146.6951 O.2     1  UNL111     -0.3376
      3 N         118.1674  152.7216  145.8821 N.4     1  UNL111      0.4301
      4 N         122.3757  152.7708  145.3895 N.pl3   1  UNL111     -0.3390
      5 N         121.2804  150.5487  147.9222 N.1     1  UNL111     -0.2814
      6 C         121.1092  152.3687  146.0164 C.3     1  UNL111      0.1088
      7 C         120.3820  153.6111  146.5687 C.3     1  UNL111     -0.0066
      8 C         120.2329  151.7551  144.8979 C.3     1  UNL111     -0.0066
      9 C         118.9606  153.3141  147.0223 C.3     1  UNL111     -0.0303
     10 C         118.8124  151.4574  145.3546 C.3     1  UNL111     -0.0303
     11 C         116.7032  152.4476  146.2562 C.3     1  UNL111     -0.0107
     12 C         121.2856  151.3449  147.0790 C.1     1  UNL111      0.0692
     13 C         115.9170  153.7407  146.4232 C.3     1  UNL111      0.0656
     14 C         123.4687  153.3945  145.9673 C.3     1  UNL111     -0.0252
     15 C         114.4664  153.4007  146.6342 C.2     1  UNL111      0.2193
     16 C         124.4447  153.9321  145.1113 C.3     1  UNL111     -0.0600
     17 C         123.6440  153.5956  147.3397 C.3     1  UNL111     -0.0600
     18 C         125.5556  154.6245  145.6027 C.3     1  UNL111     -0.0793
     19 C         124.7564  154.2853  147.8395 C.3     1  UNL111     -0.0793
     20 C         125.7117  154.8008  146.9712 C.3     1  UNL111     -0.0845
     21 C         112.3362  154.3256  146.9461 C.3     1  UNL111      0.0455
     22 H         118.1470  153.4041  145.1086 H       1  UNL111      0.1334
     23 H         122.5688  152.4071  144.4583 H       1  UNL111      0.1783
     24 H         120.3535  154.3944  145.7982 H       1  UNL111      0.0642
     25 H         120.9185  154.0451  147.4196 H       1  UNL111      0.0642
     26 H         120.6864  150.8282  144.5211 H       1  UNL111      0.0642
     27 H         120.1914  152.4421  144.0407 H       1  UNL111      0.0642
     28 H         118.9220  152.6105  147.8607 H       1  UNL111      0.0754
     29 H         118.4712  154.2465  147.3169 H       1  UNL111      0.0754
     30 H         118.2115  151.1180  144.5039 H       1  UNL111      0.0754
     31 H         118.7674  150.7023  146.1465 H       1  UNL111      0.0754
     32 H         116.7080  151.8391  147.1680 H       1  UNL111      0.0809
     33 H         116.2832  151.8523  145.4368 H       1  UNL111      0.0809
     34 H         116.0061  154.3601  145.5245 H       1  UNL111      0.0989
     35 H         116.2639  154.3039  147.2943 H       1  UNL111      0.0989
     36 H         124.3510  153.8229  144.0329 H       1  UNL111      0.0986
     37 H         122.9512  153.2000  148.0737 H       1  UNL111      0.0986
     38 H         126.2966  155.0244  144.9147 H       1  UNL111      0.0890
     39 H         124.8800  154.4115  148.9129 H       1  UNL111      0.0890
     40 H         126.5763  155.3331  147.3601 H       1  UNL111      0.0876
     41 H         111.8518  155.3033  147.0167 H       1  UNL111      0.1102
     42 H         112.1660  153.7835  147.8814 H       1  UNL111      0.1102
     43 H         111.9057  153.7835  146.0985 H       1  UNL111      0.1102
@<TRIPOS>UNITY_ATOM_ATTR
3 1
charge 1
@<TRIPOS>BOND
     1     1    15    1
     2     1    21    1
     3     2    15    2
     4     3     9    1
     5     3    10    1
     6     3    11    1
     7     4     6    1
     8     4    14    1
     9     5    12    3
    10     6     7    1
    11     6     8    1
    12     6    12    1
    13     7     9    1
    14     8    10    1
    15    11    13    1
    16    13    15    1
    17    14    16   ar
    18    14    17   ar
    19    16    18   ar
    20    17    19   ar
    21    18    20   ar
    22    19    20   ar
    23     3    22    1
    24     4    23    1
    25     7    24    1
    26     7    25    1
    27     8    26    1
    28     8    27    1
    29     9    28    1
    30     9    29    1
    31    10    30    1
    32    10    31    1
    33    11    32    1
    34    11    33    1
    35    13    34    1
    36    13    35    1
    37    16    36    1
    38    17    37    1
    39    18    38    1
    40    19    39    1
    41    20    40    1
    42    21    41    1
    43    21    42    1
    44    21    43    1
@<TRIPOS>MOLECULE
165411948
 64 65 0 0 0
SMALL
GASTEIGER

@<TRIPOS>ATOM
      1 O         118.5368  151.3529  144.8108 O.3     1  UNL111     -0.5242
      2 O         120.7352  150.7732  145.0370 O.2     1  UNL111     -0.3272
      3 O         118.3375  151.1726  147.9174 O.2     1  UNL111     -0.3742
      4 O         127.5078  153.4318  147.6141 O.3     1  UNL111     -0.5299
      5 O         115.6175  151.7719  145.9078 O.2     1  UNL111     -0.4164
      6 O         127.0024  153.1492  145.3882 O.2     1  UNL111     -0.3376
      7 N         122.8512  153.3568  146.2038 N.4     1  UNL111      0.4301
      8 N         118.5516  153.1408  146.7638 N.am    1  UNL111     -0.2473
      9 C         119.9163  152.7368  146.2436 C.3     1  UNL111      0.1423
     10 C         120.8748  152.4670  147.4320 C.3     1  UNL111      0.0012
     11 C         120.5709  153.8211  145.3381 C.3     1  UNL111      0.0012
     12 C         122.3299  152.2281  147.0546 C.3     1  UNL111     -0.0296
     13 C         122.0155  153.5291  144.9572 C.3     1  UNL111     -0.0296
     14 C         119.7760  151.4736  145.3467 C.2     1  UNL111      0.2494
     15 C         124.3244  153.1731  145.8208 C.3     1  UNL111     -0.0107
     16 C         117.8302  152.2439  147.5716 C.2     1  UNL111      0.1831
     17 C         118.0218  154.4058  146.4192 C.3     1  UNL111      0.0044
     18 C         125.2420  153.3297  147.0253 C.3     1  UNL111      0.0656
     19 C         116.4129  152.6213  148.0170 C.3     1  UNL111      0.1130
     20 C         117.3664  154.5825  145.1980 C.3     1  UNL111     -0.0543
     21 C         118.1531  155.4759  147.3101 C.3     1  UNL111     -0.0543
     22 C         115.9674  151.7401  149.1847 C.3     1  UNL111     -0.0225
     23 C         115.4027  152.4865  146.8873 C.2     1  UNL111      0.1048
     24 C         126.6709  153.2886  146.5555 C.2     1  UNL111      0.2193
     25 C         118.3302  150.1953  143.9989 C.3     1  UNL111      0.0468
     26 C         116.8445  155.8323  144.8668 C.3     1  UNL111     -0.0786
     27 C         117.6315  156.7247  146.9725 C.3     1  UNL111     -0.0786
     28 C         114.1159  153.2856  147.0306 C.3     1  UNL111      0.0152
     29 C         116.9794  156.9019  145.7519 C.3     1  UNL111     -0.0844
     30 C         113.1933  153.1225  145.8356 C.3     1  UNL111     -0.0499
     31 C         128.8981  153.4012  147.2749 C.3     1  UNL111      0.0455
     32 H         122.7871  154.2316  146.7430 H       1  UNL111      0.1333
     33 H         120.5647  151.5934  148.0123 H       1  UNL111      0.0646
     34 H         120.8289  153.3212  148.1217 H       1  UNL111      0.0646
     35 H         120.5602  154.7931  145.8476 H       1  UNL111      0.0646
     36 H         119.9996  153.9418  144.4093 H       1  UNL111      0.0646
     37 H         122.9300  152.2061  147.9693 H       1  UNL111      0.0752
     38 H         122.4955  151.2906  146.5179 H       1  UNL111      0.0752
     39 H         122.1350  152.6363  144.3371 H       1  UNL111      0.0752
     40 H         122.4277  154.3855  144.4116 H       1  UNL111      0.0752
     41 H         124.5456  153.9446  145.0738 H       1  UNL111      0.0809
     42 H         124.4201  152.1882  145.3488 H       1  UNL111      0.0809
     43 H         125.0972  152.5135  147.7391 H       1  UNL111      0.0989
     44 H         125.0621  154.2893  147.5211 H       1  UNL111      0.0989
     45 H         116.4163  153.6577  148.3662 H       1  UNL111      0.1132
     46 H         117.2331  153.7490  144.5106 H       1  UNL111      0.0995
     47 H         118.6495  155.3473  148.2682 H       1  UNL111      0.0995
     48 H         115.8473  150.6957  148.8746 H       1  UNL111      0.0384
     49 H         115.0071  152.0747  149.5904 H       1  UNL111      0.0384
     50 H         116.7002  151.7678  149.9986 H       1  UNL111      0.0384
     51 H         117.2760  150.1674  143.7102 H       1  UNL111      0.1103
     52 H         118.5620  149.2852  144.5607 H       1  UNL111      0.1103
     53 H         118.9394  150.2574  143.0922 H       1  UNL111      0.1103
     54 H         116.3214  155.9709  143.9227 H       1  UNL111      0.0890
     55 H         117.7228  157.5615  147.6619 H       1  UNL111      0.0890
     56 H         114.3809  154.3421  147.1428 H       1  UNL111      0.0643
     57 H         113.5963  152.9559  147.9350 H       1  UNL111      0.0643
     58 H         116.5651  157.8747  145.4929 H       1  UNL111      0.0876
     59 H         113.6825  153.4512  144.9127 H       1  UNL111      0.0306
     60 H         112.2845  153.7166  145.9718 H       1  UNL111      0.0306
     61 H         112.9006  152.0753  145.7057 H       1  UNL111      0.0306
     62 H         129.4737  153.5343  148.1950 H       1  UNL111      0.1102
     63 H         129.1422  154.2189  146.5898 H       1  UNL111      0.1102
     64 H         129.1614  152.4341  146.8356 H       1  UNL111      0.1102
@<TRIPOS>UNITY_ATOM_ATTR
7 1
charge 1
@<TRIPOS>BOND
     1     1    14    1
     2     1    25    1
     3     2    14    2
     4     3    16    2
     5     4    24    1
     6     4    31    1
     7     5    23    2
     8     6    24    2
     9     7    12    1
    10     7    13    1
    11     7    15    1
    12     8     9    1
    13     8    16   am
    14     8    17    1
    15     9    10    1
    16     9    11    1
    17     9    14    1
    18    10    12    1
    19    11    13    1
    20    15    18    1
    21    16    19    1
    22    17    20   ar
    23    17    21   ar
    24    18    24    1
    25    19    22    1
    26    19    23    1
    27    20    26   ar
    28    21    27   ar
    29    23    28    1
    30    26    29   ar
    31    27    29   ar
    32    28    30    1
    33     7    32    1
    34    10    33    1
    35    10    34    1
    36    11    35    1
    37    11    36    1
    38    12    37    1
    39    12    38    1
    40    13    39    1
    41    13    40    1
    42    15    41    1
    43    15    42    1
    44    18    43    1
    45    18    44    1
    46    19    45    1
    47    20    46    1
    48    21    47    1
    49    22    48    1
    50    22    49    1
    51    22    50    1
    52    25    51    1
    53    25    52    1
    54    25    53    1
    55    26    54    1
    56    27    55    1
    57    28    56    1
    58    28    57    1
    59    29    58    1
    60    30    59    1
    61    30    60    1
    62    30    61    1
    63    31    62    1
    64    31    63    1
    65    31    64    1
@<TRIPOS>MOLECULE
12298013
 47 48 0 0 0
SMALL
GASTEIGER

@<TRIPOS>ATOM
      1 O         117.4773  151.4779  147.1522 O.3     1  UNL111     -0.5242
      2 O         119.1581  152.0417  148.5945 O.2     1  UNL111     -0.3272
      3 O         119.9973  150.5842  145.4898 O.2     1  UNL111     -0.3812
      4 N         116.8568  154.8647  145.6427 N.4     1  UNL111      0.4263
      5 N         120.5645  152.7020  146.1610 N.am    1  UNL111     -0.2518
      6 C         119.1183  153.0773  146.3726 C.3     1  UNL111      0.1416
      7 C         118.3505  152.9755  145.0280 C.3     1  UNL111      0.0009
      8 C         118.9240  154.5182  146.9279 C.3     1  UNL111      0.0009
      9 C         116.9147  153.4803  145.0615 C.3     1  UNL111     -0.0313
     10 C         117.4635  154.9260  147.0158 C.3     1  UNL111     -0.0313
     11 C         118.6208  152.1280  147.4962 C.2     1  UNL111      0.2494
     12 C         115.4488  155.4062  145.6347 C.3     1  UNL111     -0.0454
     13 C         121.5769  153.6571  146.4121 C.3     1  UNL111      0.0036
     14 C         120.8840  151.4087  145.7210 C.2     1  UNL111      0.1568
     15 C         122.3596  151.0571  145.5592 C.3     1  UNL111      0.0345
     16 C         122.1239  154.3847  145.3510 C.3     1  UNL111     -0.0544
     17 C         122.0277  153.8674  147.7181 C.3     1  UNL111     -0.0544
     18 C         122.5659  149.6026  145.1679 C.3     1  UNL111     -0.0445
     19 C         117.0518  150.5022  148.1103 C.3     1  UNL111      0.0468
     20 C         123.1166  155.3320  145.6017 C.3     1  UNL111     -0.0786
     21 C         123.0206  154.8155  147.9629 C.3     1  UNL111     -0.0786
     22 C         123.5620  155.5481  146.9062 C.3     1  UNL111     -0.0844
     23 H         117.3985  155.4885  145.0264 H       1  UNL111      0.1307
     24 H         118.3169  151.9482  144.6530 H       1  UNL111      0.0646
     25 H         118.9005  153.5506  144.2698 H       1  UNL111      0.0646
     26 H         119.4413  155.2445  146.2875 H       1  UNL111      0.0646
     27 H         119.3570  154.6170  147.9306 H       1  UNL111      0.0646
     28 H         116.5189  153.5440  144.0416 H       1  UNL111      0.0749
     29 H         116.2448  152.8459  145.6480 H       1  UNL111      0.0749
     30 H         116.8781  154.2789  147.6776 H       1  UNL111      0.0749
     31 H         117.3805  155.9618  147.3621 H       1  UNL111      0.0749
     32 H         114.8300  154.7804  146.2833 H       1  UNL111      0.0663
     33 H         115.0848  155.3859  144.6042 H       1  UNL111      0.0663
     34 H         115.4817  156.4368  145.9978 H       1  UNL111      0.0663
     35 H         122.8799  151.2446  146.5040 H       1  UNL111      0.0735
     36 H         122.7944  151.6934  144.7822 H       1  UNL111      0.0735
     37 H         121.7951  154.2148  144.3294 H       1  UNL111      0.0994
     38 H         121.6258  153.2877  148.5467 H       1  UNL111      0.0994
     39 H         122.1495  148.9292  145.9243 H       1  UNL111      0.0319
     40 H         123.6333  149.3838  145.0653 H       1  UNL111      0.0319
     41 H         122.0782  149.3789  144.2133 H       1  UNL111      0.0319
     42 H         116.1915  149.9726  147.6921 H       1  UNL111      0.1103
     43 H         116.7414  150.9940  149.0371 H       1  UNL111      0.1103
     44 H         117.8475  149.7751  148.3011 H       1  UNL111      0.1103
     45 H         123.5559  155.8950  144.7810 H       1  UNL111      0.0890
     46 H         123.3837  154.9750  148.9760 H       1  UNL111      0.0890
     47 H         124.3449  156.2791  147.0990 H       1  UNL111      0.0876
@<TRIPOS>UNITY_ATOM_ATTR
4 1
charge 1
@<TRIPOS>BOND
     1     1    11    1
     2     1    19    1
     3     2    11    2
     4     3    14    2
     5     4     9    1
     6     4    10    1
     7     4    12    1
     8     5     6    1
     9     5    13    1
    10     5    14   am
    11     6     7    1
    12     6     8    1
    13     6    11    1
    14     7     9    1
    15     8    10    1
    16    13    16   ar
    17    13    17   ar
    18    14    15    1
    19    15    18    1
    20    16    20   ar
    21    17    21   ar
    22    20    22   ar
    23    21    22   ar
    24     4    23    1
    25     7    24    1
    26     7    25    1
    27     8    26    1
    28     8    27    1
    29     9    28    1
    30     9    29    1
    31    10    30    1
    32    10    31    1
    33    12    32    1
    34    12    33    1
    35    12    34    1
    36    15    35    1
    37    15    36    1
    38    16    37    1
    39    17    38    1
    40    18    39    1
    41    18    40    1
    42    18    41    1
    43    19    42    1
    44    19    43    1
    45    19    44    1
    46    20    45    1
    47    21    46    1
    48    22    47    1
@<TRIPOS>MOLECULE
135391032
 45 47 0 0 0
SMALL
GASTEIGER

@<TRIPOS>ATOM
      1 N         118.2363  152.0298  146.0248 N.4     1  UNL111      0.4301
      2 N         122.3538  152.7047  145.3697 N.pl3   1  UNL111     -0.3878
      3 C         121.1886  152.1434  146.0519 C.3     1  UNL111      0.0620
      4 C         120.3814  151.3689  144.9849 C.3     1  UNL111     -0.0159
      5 C         120.3032  153.2686  146.6145 C.3     1  UNL111     -0.0159
      6 C         119.0434  150.8726  145.5048 C.3     1  UNL111     -0.0310
      7 C         118.9614  152.7676  147.1218 C.3     1  UNL111     -0.0310
      8 C         116.8443  151.5877  146.4442 C.3     1  UNL111     -0.0143
      9 C         121.6180  151.1966  147.1044 C.1     1  UNL111     -0.1288
     10 C         115.8884  152.7381  146.6010 C.ar    1  UNL111     -0.0704
     11 C         123.3411  153.5432  145.8578 C.ar    1  UNL111     -0.0190
     12 C         115.4916  153.1687  147.8762 C.ar    1  UNL111     -0.0746
     13 C         115.3976  153.4135  145.4717 C.ar    1  UNL111     -0.0746
     14 C         124.1867  154.1730  144.9292 C.ar    1  UNL111     -0.0583
     15 C         123.5203  153.8703  147.2046 C.ar    1  UNL111     -0.0583
     16 C         121.9749  150.4242  147.9530 C.1     1  UNL111     -0.1556
     17 C         114.6289  154.2565  148.0172 C.ar    1  UNL111     -0.0834
     18 C         114.5348  154.5003  145.6186 C.ar    1  UNL111     -0.0834
     19 C         125.1782  155.0750  145.3280 C.ar    1  UNL111     -0.0792
     20 C         124.5128  154.7705  147.6133 C.ar    1  UNL111     -0.0792
     21 C         114.1536  154.9223  146.8899 C.ar    1  UNL111     -0.0861
     22 C         125.3416  155.3739  146.6745 C.ar    1  UNL111     -0.0845
     23 H         118.0890  152.6961  145.2541 H       1  UNL111      0.1352
     24 H         122.5982  152.2877  144.4750 H       1  UNL111      0.1898
     25 H         120.9580  150.5116  144.6114 H       1  UNL111      0.0622
     26 H         120.2035  152.0159  144.1139 H       1  UNL111      0.0622
     27 H         120.1284  154.0239  145.8353 H       1  UNL111      0.0622
     28 H         120.7914  153.7961  147.4405 H       1  UNL111      0.0622
     29 H         118.4722  150.4171  144.6886 H       1  UNL111      0.0755
     30 H         119.1473  150.1431  146.3153 H       1  UNL111      0.0755
     31 H         119.0634  152.0871  147.9742 H       1  UNL111      0.0755
     32 H         118.3439  153.6206  147.4183 H       1  UNL111      0.0755
     33 H         116.9481  151.0064  147.3680 H       1  UNL111      0.0876
     34 H         116.4660  150.9149  145.6651 H       1  UNL111      0.0876
     35 H         115.8402  152.6648  148.7760 H       1  UNL111      0.0924
     36 H         115.6631  153.0981  144.4646 H       1  UNL111      0.0924
     37 H         124.0786  153.9715  143.8658 H       1  UNL111      0.0988
     38 H         122.9219  153.4123  147.9835 H       1  UNL111      0.0988
     39 H         122.3291  149.7475  148.6987 H       1  UNL111      0.1773
     40 H         114.3185  154.5853  149.0074 H       1  UNL111      0.0880
     41 H         114.1488  155.0176  144.7421 H       1  UNL111      0.0880
     42 H         125.8192  155.5427  144.5849 H       1  UNL111      0.0890
     43 H         124.6413  154.9938  148.6696 H       1  UNL111      0.0890
     44 H         113.4760  155.7666  147.0025 H       1  UNL111      0.0874
     45 H         126.1131  156.0710  146.9912 H       1  UNL111      0.0876
@<TRIPOS>UNITY_ATOM_ATTR
1 1
charge 1
@<TRIPOS>BOND
     1     1     6    1
     2     1     7    1
     3     1     8    1
     4     2     3    1
     5     2    11    1
     6     3     4    1
     7     3     5    1
     8     3     9    1
     9     4     6    1
    10     5     7    1
    11     8    10    1
    12     9    16    3
    13    10    12   ar
    14    10    13   ar
    15    11    14   ar
    16    11    15   ar
    17    12    17   ar
    18    13    18   ar
    19    14    19   ar
    20    15    20   ar
    21    17    21   ar
    22    18    21   ar
    23    19    22   ar
    24    20    22   ar
    25     1    23    1
    26     2    24    1
    27     4    25    1
    28     4    26    1
    29     5    27    1
    30     5    28    1
    31     6    29    1
    32     6    30    1
    33     7    31    1
    34     7    32    1
    35     8    33    1
    36     8    34    1
    37    12    35    1
    38    13    36    1
    39    14    37    1
    40    15    38    1
    41    16    39    1
    42    17    40    1
    43    18    41    1
    44    19    42    1
    45    20    43    1
    46    21    44    1
    47    22    45    1
@<TRIPOS>MOLECULE
135391061
 44 45 0 0 0
SMALL
GASTEIGER

@<TRIPOS>ATOM
      1 O         113.7499  154.5740  146.7292 O.3     1  UNL111     -0.5299
      2 O         114.0327  152.2914  146.7159 O.2     1  UNL111     -0.3376
      3 N         118.1633  152.7141  145.9010 N.4     1  UNL111      0.4299
      4 N         122.3621  152.7456  145.4078 N.pl3   1  UNL111     -0.3490
      5 C         121.1008  152.3334  146.0221 C.3     1  UNL111      0.0556
      6 C         120.2204  151.7666  144.8853 C.3     1  UNL111     -0.0179
      7 C         120.3836  153.5469  146.6386 C.3     1  UNL111     -0.0179
      8 C         118.8011  151.4637  145.3332 C.3     1  UNL111     -0.0321
      9 C         118.9615  153.2357  147.0725 C.3     1  UNL111     -0.0321
     10 C         116.6951  152.4544  146.2457 C.3     1  UNL111     -0.0107
     11 C         121.3402  151.2668  147.0184 C.1     1  UNL111     -0.1309
     12 C         115.9258  153.7548  146.4323 C.3     1  UNL111      0.0656
     13 C         123.4492  153.3894  145.9735 C.3     1  UNL111     -0.0268
     14 C         114.4715  153.4289  146.6395 C.2     1  UNL111      0.2193
     15 C         124.4126  153.9350  145.1085 C.3     1  UNL111     -0.0601
     16 C         123.6302  153.6030  147.3426 C.3     1  UNL111     -0.0601
     17 C         121.5417  150.3964  147.8220 C.1     1  UNL111     -0.1558
     18 C         125.5163  154.6468  145.5887 C.3     1  UNL111     -0.0793
     19 C         124.7342  154.3126  147.8327 C.3     1  UNL111     -0.0793
     20 C         125.6772  154.8356  146.9553 C.3     1  UNL111     -0.0845
     21 C         112.3469  154.3736  146.9307 C.3     1  UNL111      0.0455
     22 H         118.1765  153.4280  145.1572 H       1  UNL111      0.1334
     23 H         122.5771  152.3364  144.5018 H       1  UNL111      0.1762
     24 H         120.6656  150.8510  144.4724 H       1  UNL111      0.0620
     25 H         120.1818  152.4850  144.0539 H       1  UNL111      0.0620
     26 H         120.3607  154.3702  145.9108 H       1  UNL111      0.0620
     27 H         120.9172  153.9330  147.5132 H       1  UNL111      0.0620
     28 H         118.1976  151.1543  144.4731 H       1  UNL111      0.0752
     29 H         118.7533  150.6843  146.1014 H       1  UNL111      0.0752
     30 H         118.9184  152.4856  147.8696 H       1  UNL111      0.0752
     31 H         118.4779  154.1527  147.4205 H       1  UNL111      0.0752
     32 H         116.6767  151.8233  147.1417 H       1  UNL111      0.0809
     33 H         116.2756  151.8862  145.4070 H       1  UNL111      0.0809
     34 H         116.0229  154.3850  145.5420 H       1  UNL111      0.0989
     35 H         116.2792  154.3025  147.3106 H       1  UNL111      0.0989
     36 H         124.3116  153.8162  144.0319 H       1  UNL111      0.0986
     37 H         122.9436  153.1955  148.0755 H       1  UNL111      0.0986
     38 H         121.7574  149.6262  148.5290 H       1  UNL111      0.1773
     39 H         126.2468  155.0526  144.8933 H       1  UNL111      0.0890
     40 H         124.8600  154.4487  148.9041 H       1  UNL111      0.0890
     41 H         126.5354  155.3841  147.3352 H       1  UNL111      0.0876
     42 H         111.8690  155.3556  146.9837 H       1  UNL111      0.1102
     43 H         112.1687  153.8475  147.8736 H       1  UNL111      0.1102
     44 H         111.9161  153.8212  146.0898 H       1  UNL111      0.1102
@<TRIPOS>UNITY_ATOM_ATTR
3 1
charge 1
@<TRIPOS>BOND
     1     1    14    1
     2     1    21    1
     3     2    14    2
     4     3     8    1
     5     3     9    1
     6     3    10    1
     7     4     5    1
     8     4    13    1
     9     5     6    1
    10     5     7    1
    11     5    11    1
    12     6     8    1
    13     7     9    1
    14    10    12    1
    15    11    17    3
    16    12    14    1
    17    13    15   ar
    18    13    16   ar
    19    15    18   ar
    20    16    19   ar
    21    18    20   ar
    22    19    20   ar
    23     3    22    1
    24     4    23    1
    25     6    24    1
    26     6    25    1
    27     7    26    1
    28     7    27    1
    29     8    28    1
    30     8    29    1
    31     9    30    1
    32     9    31    1
    33    10    32    1
    34    10    33    1
    35    12    34    1
    36    12    35    1
    37    15    36    1
    38    16    37    1
    39    17    38    1
    40    18    39    1
    41    19    40    1
    42    20    41    1
    43    21    42    1
    44    21    43    1
    45    21    44    1
@<TRIPOS>MOLECULE
2724430
 49 51 0 0 0
SMALL
GASTEIGER

@<TRIPOS>ATOM
      1 O         117.7962  155.4513  145.5859 O.3     1  UNL111     -0.5247
      2 O         118.8402  155.3484  147.6245 O.2     1  UNL111     -0.3281
      3 N         121.5853  152.9018  147.1855 N.4     1  UNL111      0.4302
      4 N         117.7721  152.7072  145.4123 N.pl3   1  UNL111     -0.3363
      5 C         118.8347  153.3646  146.2020 C.3     1  UNL111      0.1204
      6 C         120.0854  153.4353  145.2987 C.3     1  UNL111     -0.0030
      7 C         119.1515  152.5010  147.4421 C.3     1  UNL111     -0.0030
      8 C         121.3384  153.8574  146.0497 C.3     1  UNL111     -0.0293
      9 C         120.4392  152.8787  148.1566 C.3     1  UNL111     -0.0293
     10 C         122.8980  153.1750  147.9023 C.3     1  UNL111     -0.0144
     11 C         118.4666  154.8173  146.5842 C.2     1  UNL111      0.2443
     12 C         116.4828  152.3892  145.8063 C.3     1  UNL111     -0.0251
     13 C         124.1017  152.8586  147.0574 C.3     1  UNL111     -0.0704
     14 C         115.7431  151.5223  144.9853 C.3     1  UNL111     -0.0601
     15 C         115.8853  152.8042  146.9998 C.3     1  UNL111     -0.0601
     16 C         124.4310  151.5268  146.7567 C.3     1  UNL111     -0.0746
     17 C         124.9010  153.8896  146.5408 C.3     1  UNL111     -0.0746
     18 C         117.4007  156.7918  145.8871 C.3     1  UNL111      0.0468
     19 C         114.4558  151.1006  145.3309 C.3     1  UNL111     -0.0793
     20 C         114.5946  152.3886  147.3515 C.3     1  UNL111     -0.0793
     21 C         125.5304  151.2368  145.9477 C.3     1  UNL111     -0.0834
     22 C         125.9998  153.5939  145.7331 C.3     1  UNL111     -0.0834
     23 C         113.8802  151.5358  146.5176 C.3     1  UNL111     -0.0845
     24 C         126.3116  152.2696  145.4348 C.3     1  UNL111     -0.0861
     25 H         121.6850  151.9583  146.7868 H       1  UNL111      0.1351
     26 H         117.8850  152.7154  144.4000 H       1  UNL111      0.1777
     27 H         119.9202  154.1329  144.4671 H       1  UNL111      0.0639
     28 H         120.2647  152.4537  144.8377 H       1  UNL111      0.0639
     29 H         119.2209  151.4464  147.1398 H       1  UNL111      0.0639
     30 H         118.3439  152.5506  148.1795 H       1  UNL111      0.0639
     31 H         122.1973  153.8097  145.3739 H       1  UNL111      0.0755
     32 H         121.2663  154.8683  146.4643 H       1  UNL111      0.0755
     33 H         120.3957  153.8541  148.6485 H       1  UNL111      0.0755
     34 H         120.6727  152.1225  148.9148 H       1  UNL111      0.0755
     35 H         122.9184  152.5448  148.7997 H       1  UNL111      0.0876
     36 H         122.8828  154.2226  148.2255 H       1  UNL111      0.0876
     37 H         116.1703  151.1512  144.0561 H       1  UNL111      0.0986
     38 H         116.3809  153.4852  147.6820 H       1  UNL111      0.0986
     39 H         123.8524  150.6968  147.1575 H       1  UNL111      0.0924
     40 H         124.6878  154.9340  146.7629 H       1  UNL111      0.0924
     41 H         116.8093  157.1676  145.0478 H       1  UNL111      0.1103
     42 H         118.2828  157.4284  146.0055 H       1  UNL111      0.1103
     43 H         116.7803  156.8164  146.7884 H       1  UNL111      0.1103
     44 H         113.9078  150.4303  144.6732 H       1  UNL111      0.0890
     45 H         114.1453  152.7370  148.2786 H       1  UNL111      0.0890
     46 H         125.7891  150.2038  145.7221 H       1  UNL111      0.0880
     47 H         126.6222  154.3955  145.3394 H       1  UNL111      0.0880
     48 H         112.8787  151.2130  146.7907 H       1  UNL111      0.0876
     49 H         127.1732  152.0414  144.8102 H       1  UNL111      0.0874
@<TRIPOS>UNITY_ATOM_ATTR
3 1
charge 1
@<TRIPOS>BOND
     1     1    11    1
     2     1    18    1
     3     2    11    2
     4     3     8    1
     5     3     9    1
     6     3    10    1
     7     4     5    1
     8     4    12    1
     9     5     6    1
    10     5     7    1
    11     5    11    1
    12     6     8    1
    13     7     9    1
    14    10    13    1
    15    12    14   ar
    16    12    15   ar
    17    13    16   ar
    18    13    17   ar
    19    14    19   ar
    20    15    20   ar
    21    16    21   ar
    22    17    22   ar
    23    19    23   ar
    24    20    23   ar
    25    21    24   ar
    26    22    24   ar
    27     3    25    1
    28     4    26    1
    29     6    27    1
    30     6    28    1
    31     7    29    1
    32     7    30    1
    33     8    31    1
    34     8    32    1
    35     9    33    1
    36     9    34    1
    37    10    35    1
    38    10    36    1
    39    14    37    1
    40    15    38    1
    41    16    39    1
    42    17    40    1
    43    18    41    1
    44    18    42    1
    45    18    43    1
    46    19    44    1
    47    20    45    1
    48    21    46    1
    49    22    47    1
    50    23    48    1
    51    24    49    1
@<TRIPOS>MOLECULE
2724431
 44 45 0 0 0
SMALL
GASTEIGER

@<TRIPOS>ATOM
      1 O         122.7780  152.3380  145.7487 O.3     1  UNL111     -0.5242
      2 O         121.0528  152.5420  144.2634 O.2     1  UNL111     -0.3272
      3 O         120.4888  150.7215  147.2231 O.2     1  UNL111     -0.3812
      4 N         119.4412  152.6779  146.6498 N.am    1  UNL111     -0.2518
      5 N         122.4686  155.6160  147.4882 N.4     1  UNL111      0.4326
      6 C         120.7567  153.4072  146.5387 C.3     1  UNL111      0.1415
      7 C         121.4778  153.3961  147.9161 C.3     1  UNL111      0.0011
      8 C         120.6114  154.8900  146.0788 C.3     1  UNL111      0.0011
      9 C         122.7382  154.2447  147.9937 C.3     1  UNL111     -0.0268
     10 C         121.9272  155.6464  146.1042 C.3     1  UNL111     -0.0268
     11 C         121.5148  152.6898  145.3887 C.2     1  UNL111      0.2494
     12 C         118.2348  153.3728  146.4014 C.3     1  UNL111      0.0036
     13 C         119.4346  151.3177  146.9934 C.2     1  UNL111      0.1568
     14 C         118.0871  150.6054  147.0528 C.3     1  UNL111      0.0345
     15 C         117.4847  153.8666  147.4729 C.3     1  UNL111     -0.0544
     16 C         117.7969  153.5609  145.0876 C.3     1  UNL111     -0.0544
     17 C         118.2327  149.1204  147.3439 C.3     1  UNL111     -0.0445
     18 C         116.2998  154.5598  147.2256 C.3     1  UNL111     -0.0786
     19 C         116.6113  154.2542  144.8464 C.3     1  UNL111     -0.0786
     20 C         123.4714  151.5682  144.7596 C.3     1  UNL111      0.0468
     21 C         115.8657  154.7549  145.9140 C.3     1  UNL111     -0.0844
     22 H         123.3463  156.1566  147.5165 H       1  UNL111      0.1347
     23 H         121.8313  156.1107  148.1306 H       1  UNL111      0.1347
     24 H         121.7560  152.3841  148.2248 H       1  UNL111      0.0645
     25 H         120.7726  153.7566  148.6782 H       1  UNL111      0.0645
     26 H         119.9036  155.4196  146.7297 H       1  UNL111      0.0645
     27 H         120.2108  154.9509  145.0598 H       1  UNL111      0.0645
     28 H         123.0692  154.3536  149.0316 H       1  UNL111      0.0748
     29 H         123.5741  153.8455  147.4145 H       1  UNL111      0.0748
     30 H         122.6837  155.2196  145.4384 H       1  UNL111      0.0748
     31 H         121.7821  156.6999  145.8461 H       1  UNL111      0.0748
     32 H         117.5729  150.7274  146.0940 H       1  UNL111      0.0735
     33 H         117.4790  151.0586  147.8418 H       1  UNL111      0.0735
     34 H         117.8047  153.7080  148.4990 H       1  UNL111      0.0994
     35 H         118.3603  153.1571  144.2487 H       1  UNL111      0.0994
     36 H         118.8315  148.6254  146.5721 H       1  UNL111      0.0319
     37 H         117.2498  148.6403  147.3745 H       1  UNL111      0.0319
     38 H         118.7239  148.9547  148.3084 H       1  UNL111      0.0319
     39 H         115.7036  154.9381  148.0533 H       1  UNL111      0.0890
     40 H         116.2591  154.3930  143.8263 H       1  UNL111      0.0890
     41 H         124.4254  151.2500  145.1886 H       1  UNL111      0.1103
     42 H         123.6735  152.1828  143.8771 H       1  UNL111      0.1103
     43 H         122.8970  150.6759  144.4912 H       1  UNL111      0.1103
     44 H         114.9348  155.2854  145.7229 H       1  UNL111      0.0876
@<TRIPOS>UNITY_ATOM_ATTR
5 1
charge 1
@<TRIPOS>BOND
     1     1    11    1
     2     1    20    1
     3     2    11    2
     4     3    13    2
     5     4     6    1
     6     4    12    1
     7     4    13   am
     8     5     9    1
     9     5    10    1
    10     6     7    1
    11     6     8    1
    12     6    11    1
    13     7     9    1
    14     8    10    1
    15    12    15   ar
    16    12    16   ar
    17    13    14    1
    18    14    17    1
    19    15    18   ar
    20    16    19   ar
    21    18    21   ar
    22    19    21   ar
    23     5    22    1
    24     5    23    1
    25     7    24    1
    26     7    25    1
    27     8    26    1
    28     8    27    1
    29     9    28    1
    30     9    29    1
    31    10    30    1
    32    10    31    1
    33    14    32    1
    34    14    33    1
    35    15    34    1
    36    16    35    1
    37    17    36    1
    38    17    37    1
    39    17    38    1
    40    18    39    1
    41    19    40    1
    42    20    41    1
    43    20    42    1
    44    20    43    1
    45    21    44    1
@<TRIPOS>MOLECULE
70412
 44 46 0 0 0
SMALL
GASTEIGER

@<TRIPOS>ATOM
      1 N         118.2385  154.1440  146.8481 N.4     1  UNL111      0.4303
      2 N         122.3792  153.4919  147.4679 N.pl3   1  UNL111     -0.3774
      3 N         121.6420  155.6485  144.7527 N.1     1  UNL111     -0.2813
      4 C         121.1919  154.0224  146.7844 C.3     1  UNL111      0.1146
      5 C         120.2951  152.8605  146.3135 C.3     1  UNL111     -0.0048
      6 C         120.4013  154.8442  147.8316 C.3     1  UNL111     -0.0048
      7 C         118.9441  153.3293  145.7930 C.3     1  UNL111     -0.0293
      8 C         119.0524  155.3202  147.3122 C.3     1  UNL111     -0.0293
      9 C         116.8510  154.5891  146.3967 C.3     1  UNL111     -0.0143
     10 C         121.5271  154.9242  145.6513 C.1     1  UNL111      0.0711
     11 C         115.8841  153.4449  146.2665 C.ar    1  UNL111     -0.0704
     12 C         123.3879  152.6922  146.9575 C.ar    1  UNL111     -0.0171
     13 C         115.4945  152.9812  145.0006 C.ar    1  UNL111     -0.0746
     14 C         115.3758  152.8082  147.4104 C.ar    1  UNL111     -0.0746
     15 C         124.2857  152.1078  147.8670 C.ar    1  UNL111     -0.0581
     16 C         123.5450  152.3634  145.6076 C.ar    1  UNL111     -0.0581
     17 C         114.6225  151.8982  144.8830 C.ar    1  UNL111     -0.0834
     18 C         114.5039  151.7258  147.2868 C.ar    1  UNL111     -0.0834
     19 C         125.3060  151.2486  147.4474 C.ar    1  UNL111     -0.0791
     20 C         124.5668  151.5056  145.1795 C.ar    1  UNL111     -0.0791
     21 C         114.1306  151.2701  146.0247 C.ar    1  UNL111     -0.0861
     22 C         125.4470  150.9476  146.0992 C.ar    1  UNL111     -0.0845
     23 H         118.0667  153.5244  147.6528 H       1  UNL111      0.1352
     24 H         122.5935  153.8708  148.3880 H       1  UNL111      0.1922
     25 H         120.1332  152.1597  147.1446 H       1  UNL111      0.0644
     26 H         120.7749  152.2789  145.5187 H       1  UNL111      0.0644
     27 H         120.9854  155.7166  148.1547 H       1  UNL111      0.0644
     28 H         120.2389  154.2372  148.7336 H       1  UNL111      0.0644
     29 H         119.0317  153.9475  144.8932 H       1  UNL111      0.0757
     30 H         118.3212  152.4584  145.5684 H       1  UNL111      0.0757
     31 H         118.4924  155.8057  148.1188 H       1  UNL111      0.0757
     32 H         119.1427  156.0191  146.4738 H       1  UNL111      0.0757
     33 H         116.9735  155.1374  145.4552 H       1  UNL111      0.0876
     34 H         116.4739  155.2917  147.1496 H       1  UNL111      0.0876
     35 H         115.8548  153.4560  144.0894 H       1  UNL111      0.0924
     36 H         115.6328  153.1513  148.4106 H       1  UNL111      0.0924
     37 H         124.2008  152.3118  148.9322 H       1  UNL111      0.0988
     38 H         122.9086  152.7787  144.8347 H       1  UNL111      0.0988
     39 H         114.3170  151.5445  143.8998 H       1  UNL111      0.0880
     40 H         114.1031  151.2387  148.1741 H       1  UNL111      0.0880
     41 H         125.9882  150.8163  148.1754 H       1  UNL111      0.0890
     42 H         124.6787  151.2800  144.1213 H       1  UNL111      0.0890
     43 H         113.4449  150.4301  145.9301 H       1  UNL111      0.0874
     44 H         126.2413  150.2844  145.7658 H       1  UNL111      0.0876
@<TRIPOS>UNITY_ATOM_ATTR
1 1
charge 1
@<TRIPOS>BOND
     1     1     7    1
     2     1     8    1
     3     1     9    1
     4     2     4    1
     5     2    12    1
     6     3    10    3
     7     4     5    1
     8     4     6    1
     9     4    10    1
    10     5     7    1
    11     6     8    1
    12     9    11    1
    13    11    13   ar
    14    11    14   ar
    15    12    15   ar
    16    12    16   ar
    17    13    17   ar
    18    14    18   ar
    19    15    19   ar
    20    16    20   ar
    21    17    21   ar
    22    18    21   ar
    23    19    22   ar
    24    20    22   ar
    25     1    23    1
    26     2    24    1
    27     5    25    1
    28     5    26    1
    29     6    27    1
    30     6    28    1
    31     7    29    1
    32     7    30    1
    33     8    31    1
    34     8    32    1
    35     9    33    1
    36     9    34    1
    37    13    35    1
    38    14    36    1
    39    15    37    1
    40    16    38    1
    41    17    39    1
    42    18    40    1
    43    19    41    1
    44    20    42    1
    45    21    43    1
    46    22    44    1
@<TRIPOS>MOLECULE
70668
 47 49 0 0 0
SMALL
GASTEIGER

@<TRIPOS>ATOM
      1 O         118.1096  156.4590  145.5350 O.2     1  UNL111     -0.3756
      2 N         121.2642  153.0029  145.7394 N.4     1  UNL111      0.4300
      3 N         118.0191  153.2571  147.2833 N.pl3   1  UNL111     -0.3427
      4 N         117.0351  155.8509  147.4206 N.am    1  UNL111     -0.3188
      5 C         118.7057  154.2857  146.4694 C.3     1  UNL111      0.0931
      6 C         120.0379  154.6271  147.1733 C.3     1  UNL111     -0.0101
      7 C         119.0313  153.7936  145.0485 C.3     1  UNL111     -0.0101
      8 C         121.0266  153.4704  147.1519 C.3     1  UNL111     -0.0306
      9 C         119.9776  152.6118  145.0569 C.3     1  UNL111     -0.0306
     10 C         117.9082  155.6123  146.4007 C.2     1  UNL111      0.1656
     11 C         122.2773  151.8749  145.6605 C.3     1  UNL111     -0.0144
     12 C         116.8631  152.5566  146.9806 C.3     1  UNL111     -0.0264
     13 C         123.6668  152.3003  146.0479 C.3     1  UNL111     -0.0704
     14 C         116.5803  151.4033  147.7297 C.3     1  UNL111     -0.0602
     15 C         115.9871  152.8788  145.9408 C.3     1  UNL111     -0.0602
     16 C         124.4233  153.1219  145.1970 C.3     1  UNL111     -0.0746
     17 C         124.2195  151.8989  147.2739 C.3     1  UNL111     -0.0746
     18 C         115.4629  150.6086  147.4582 C.3     1  UNL111     -0.0793
     19 C         114.8649  152.0887  145.6647 C.3     1  UNL111     -0.0793
     20 C         125.7024  153.5364  145.5702 C.3     1  UNL111     -0.0834
     21 C         125.4988  152.3169  147.6424 C.3     1  UNL111     -0.0834
     22 C         114.6037  150.9523  146.4220 C.3     1  UNL111     -0.0845
     23 C         126.2377  153.1362  146.7922 C.3     1  UNL111     -0.0861
     24 H         121.6797  153.7856  145.2168 H       1  UNL111      0.1351
     25 H         118.2400  153.2410  148.2780 H       1  UNL111      0.1761
     26 H         116.5069  156.7153  147.4166 H       1  UNL111      0.1797
     27 H         116.7445  155.1113  148.0484 H       1  UNL111      0.1797
     28 H         119.8579  154.9227  148.2153 H       1  UNL111      0.0622
     29 H         120.5032  155.4976  146.6901 H       1  UNL111      0.0622
     30 H         119.4928  154.6051  144.4686 H       1  UNL111      0.0622
     31 H         118.1320  153.5229  144.4891 H       1  UNL111      0.0622
     32 H         121.9842  153.8047  147.5619 H       1  UNL111      0.0753
     33 H         120.6689  152.6125  147.7319 H       1  UNL111      0.0753
     34 H         119.5685  151.7405  145.5795 H       1  UNL111      0.0753
     35 H         120.2299  152.3264  144.0299 H       1  UNL111      0.0753
     36 H         122.2897  151.5193  144.6230 H       1  UNL111      0.0876
     37 H         121.9075  151.0577  146.2913 H       1  UNL111      0.0876
     38 H         117.2365  151.0997  148.5423 H       1  UNL111      0.0986
     39 H         116.1199  153.7711  145.3367 H       1  UNL111      0.0986
     40 H         124.0402  153.4372  144.2283 H       1  UNL111      0.0924
     41 H         123.6702  151.2515  147.9552 H       1  UNL111      0.0924
     42 H         115.2642  149.7226  148.0568 H       1  UNL111      0.0890
     43 H         114.1879  152.3692  144.8604 H       1  UNL111      0.0890
     44 H         126.2913  154.1655  144.9051 H       1  UNL111      0.0880
     45 H         125.9278  151.9985  148.5907 H       1  UNL111      0.0880
     46 H         113.7297  150.3412  146.2092 H       1  UNL111      0.0876
     47 H         127.2383  153.4549  147.0782 H       1  UNL111      0.0874
@<TRIPOS>UNITY_ATOM_ATTR
2 1
charge 1
@<TRIPOS>BOND
     1     1    10    2
     2     2     8    1
     3     2     9    1
     4     2    11    1
     5     3     5    1
     6     3    12    1
     7     4    10   am
     8     5     6    1
     9     5     7    1
    10     5    10    1
    11     6     8    1
    12     7     9    1
    13    11    13    1
    14    12    14   ar
    15    12    15   ar
    16    13    16   ar
    17    13    17   ar
    18    14    18   ar
    19    15    19   ar
    20    16    20   ar
    21    17    21   ar
    22    18    22   ar
    23    19    22   ar
    24    20    23   ar
    25    21    23   ar
    26     2    24    1
    27     3    25    1
    28     4    26    1
    29     4    27    1
    30     6    28    1
    31     6    29    1
    32     7    30    1
    33     7    31    1
    34     8    32    1
    35     8    33    1
    36     9    34    1
    37     9    35    1
    38    11    36    1
    39    11    37    1
    40    14    38    1
    41    15    39    1
    42    16    40    1
    43    17    41    1
    44    18    42    1
    45    19    43    1
    46    20    44    1
    47    21    45    1
    48    22    46    1
    49    23    47    1
