@<TRIPOS>MOLECULE
123924
 74 76 0 0 0
SMALL
GASTEIGER

@<TRIPOS>ATOM
      1 O         117.8924  156.9795  148.9018 O.2     1  UNL111     -0.5832
      2 O         125.2147  153.7196  147.4992 O.2     1  UNL111     -0.3686
      3 N         118.1659  152.5694  146.1775 N.4     1  UNL111      0.4345
      4 N         116.1587  150.3935  146.3013 N.4     1  UNL111      0.4291
      5 N         125.5319  151.7373  146.3397 N.am    1  UNL111     -0.3261
      6 C         116.6665  152.8798  145.9328 C.3     1  UNL111     -0.0295
      7 C         117.6489  150.0777  146.5125 C.3     1  UNL111     -0.0321
      8 C         118.5415  151.1355  145.7883 C.3     1  UNL111     -0.0265
      9 C         115.7751  151.8293  146.6670 C.3     1  UNL111     -0.0291
     10 C         119.1488  153.6263  145.5871 C.3     1  UNL111      0.0228
     11 C         116.3392  152.9346  144.4395 C.3     1  UNL111     -0.0536
     12 C         117.9914  149.9898  148.0010 C.3     1  UNL111     -0.0541
     13 C         115.2295  149.3698  146.9452 C.3     1  UNL111     -0.0226
     14 C         120.6115  153.3364  145.9203 C.3     1  UNL111     -0.0548
     15 C         118.7667  155.0556  145.9414 C.3     1  UNL111     -0.0409
     16 C         113.8786  149.3755  146.3098 C.2     1  UNL111     -0.1083
     17 C         121.5668  153.3380  144.8831 C.3     1  UNL111     -0.0640
     18 C         121.0567  153.1247  147.2397 C.3     1  UNL111     -0.0640
     19 C         118.5076  155.4532  147.2657 C.3     1  UNL111     -0.0162
     20 C         118.6789  156.0270  144.9317 C.3     1  UNL111     -0.0658
     21 C         122.9228  153.1300  145.1544 C.3     1  UNL111     -0.0455
     22 C         122.4113  152.9088  147.5080 C.3     1  UNL111     -0.0455
     23 C         118.1403  156.7668  147.5754 C.3     1  UNL111      0.0365
     24 C         118.3163  157.3396  145.2392 C.3     1  UNL111     -0.0668
     25 C         123.3394  152.8959  146.4649 C.3     1  UNL111      0.0417
     26 C         118.0401  157.7082  146.5569 C.3     1  UNL111     -0.0307
     27 C         112.7610  149.8210  146.9002 C.2     1  UNL111     -0.1142
     28 C         124.7746  152.8116  146.7991 C.2     1  UNL111      0.1798
     29 C         126.9649  151.7382  146.6520 C.3     1  UNL111     -0.0082
     30 C         125.0121  150.5608  145.6406 C.3     1  UNL111     -0.0082
     31 C         117.7379  158.3371  149.3131 C.3     1  UNL111      0.0294
     32 C         127.7756  152.3779  145.5359 C.3     1  UNL111     -0.0516
     33 C         124.5813  149.4757  146.6159 C.3     1  UNL111     -0.0516
     34 H         118.3261  152.6725  147.1864 H       1  UNL111      0.1471
     35 H         115.9670  150.2710  145.2963 H       1  UNL111      0.1418
     36 H         116.4600  153.8529  146.3869 H       1  UNL111      0.0927
     37 H         117.8188  149.1018  146.0426 H       1  UNL111      0.0920
     38 H         119.5886  150.9673  146.0527 H       1  UNL111      0.0894
     39 H         118.4379  151.0567  144.7017 H       1  UNL111      0.0894
     40 H         115.8789  151.9260  147.7526 H       1  UNL111      0.0887
     41 H         114.7250  151.9747  146.3965 H       1  UNL111      0.0887
     42 H         119.0296  153.4931  144.5044 H       1  UNL111      0.1105
     43 H         116.5687  152.0000  143.9207 H       1  UNL111      0.0431
     44 H         116.8741  153.7423  143.9333 H       1  UNL111      0.0431
     45 H         115.2702  153.1300  144.2980 H       1  UNL111      0.0431
     46 H         117.7652  150.9137  148.5406 H       1  UNL111      0.0430
     47 H         119.0606  149.7879  148.1302 H       1  UNL111      0.0430
     48 H         117.4541  149.1713  148.4895 H       1  UNL111      0.0430
     49 H         115.1871  149.5927  148.0168 H       1  UNL111      0.0843
     50 H         115.6860  148.3840  146.8051 H       1  UNL111      0.0843
     51 H         113.7847  148.9274  145.3205 H       1  UNL111      0.0866
     52 H         121.2832  153.5491  143.8519 H       1  UNL111      0.0942
     53 H         120.3870  153.1755  148.0938 H       1  UNL111      0.0942
     54 H         118.5987  154.7626  148.0994 H       1  UNL111      0.1161
     55 H         118.9021  155.7897  143.8920 H       1  UNL111      0.0937
     56 H         123.6594  153.1949  144.3545 H       1  UNL111      0.0974
     57 H         122.7613  152.8021  148.5350 H       1  UNL111      0.0974
     58 H         118.2574  158.0895  144.4507 H       1  UNL111      0.0915
     59 H         117.7598  158.7398  146.7531 H       1  UNL111      0.1103
     60 H         112.7430  150.2328  147.9063 H       1  UNL111      0.0686
     61 H         111.7986  149.7510  146.3931 H       1  UNL111      0.0686
     62 H         127.2946  150.7073  146.8209 H       1  UNL111      0.0702
     63 H         127.1417  152.2882  147.5829 H       1  UNL111      0.0702
     64 H         125.7871  150.1801  144.9663 H       1  UNL111      0.0702
     65 H         124.1576  150.8324  145.0186 H       1  UNL111      0.0702
     66 H         117.6494  158.3465  150.4036 H       1  UNL111      0.1069
     67 H         116.8203  158.7672  148.8991 H       1  UNL111      0.1069
     68 H         118.6140  158.9357  149.0423 H       1  UNL111      0.1069
     69 H         127.6443  151.8378  144.5928 H       1  UNL111      0.0335
     70 H         128.8404  152.3725  145.7878 H       1  UNL111      0.0335
     71 H         127.4671  153.4156  145.3714 H       1  UNL111      0.0335
     72 H         125.4199  149.1459  147.2374 H       1  UNL111      0.0335
     73 H         124.1975  148.6070  146.0722 H       1  UNL111      0.0335
     74 H         123.7930  149.8361  147.2847 H       1  UNL111      0.0335
@<TRIPOS>UNITY_ATOM_ATTR
3 1
charge 1
4 1
charge 1
@<TRIPOS>BOND
     1     1    23    1
     2     1    31    1
     3     2    28    2
     4     3     6    1
     5     3     8    1
     6     3    10    1
     7     4     7    1
     8     4     9    1
     9     4    13    1
    10     5    28   am
    11     5    29    1
    12     5    30    1
    13     6     9    1
    14     6    11    1
    15     7     8    1
    16     7    12    1
    17    10    14    1
    18    10    15    1
    19    13    16    1
    20    14    17   ar
    21    14    18   ar
    22    15    19   ar
    23    15    20   ar
    24    16    27    2
    25    17    21   ar
    26    18    22   ar
    27    19    23   ar
    28    20    24   ar
    29    21    25   ar
    30    22    25   ar
    31    23    26   ar
    32    24    26   ar
    33    25    28    1
    34    29    32    1
    35    30    33    1
    36     3    34    1
    37     4    35    1
    38     6    36    1
    39     7    37    1
    40     8    38    1
    41     8    39    1
    42     9    40    1
    43     9    41    1
    44    10    42    1
    45    11    43    1
    46    11    44    1
    47    11    45    1
    48    12    46    1
    49    12    47    1
    50    12    48    1
    51    13    49    1
    52    13    50    1
    53    16    51    1
    54    17    52    1
    55    18    53    1
    56    19    54    1
    57    20    55    1
    58    21    56    1
    59    22    57    1
    60    24    58    1
    61    26    59    1
    62    27    60    1
    63    27    61    1
    64    29    62    1
    65    29    63    1
    66    30    64    1
    67    30    65    1
    68    31    66    1
    69    31    67    1
    70    31    68    1
    71    32    69    1
    72    32    70    1
    73    32    71    1
    74    33    72    1
    75    33    73    1
    76    33    74    1
