@<TRIPOS>MOLECULE
130431397
 45 48 0 0 0
SMALL
GASTEIGER

@<TRIPOS>ATOM
      1 CL        114.1979  155.4124  144.5273 Cl      1  UNL111     -0.1202
      2 CL        112.2070  153.0576  145.4987 Cl      1  UNL111     -0.1184
      3 CL        127.8297  151.8239  144.6666 Cl      1  UNL111     -0.1312
      4 O         118.9115  150.6337  146.6580 O.2     1  UNL111     -0.3273
      5 N         121.9275  153.8377  147.2790 N.4     1  UNL111      0.4292
      6 N         117.8647  152.6884  146.6892 N.am    1  UNL111     -0.2707
      7 N         116.6137  150.8125  146.5504 N.am    1  UNL111     -0.1734
      8 C         119.0553  153.5171  146.8785 C.3     1  UNL111      0.0202
      9 C         120.0584  153.3384  145.7298 C.3     1  UNL111     -0.0329
     10 C         119.7185  153.2577  148.2355 C.3     1  UNL111     -0.0329
     11 C         121.3164  154.1642  145.9383 C.3     1  UNL111     -0.0356
     12 C         120.9737  154.0939  148.4155 C.3     1  UNL111     -0.0356
     13 C         123.2541  154.5425  147.4973 C.3     1  UNL111     -0.0143
     14 C         116.5263  153.1509  146.9402 C.3     1  UNL111      0.0840
     15 C         117.8890  151.3009  146.6333 C.2     1  UNL111      0.2619
     16 C         115.8385  151.8405  146.6190 C.2     1  UNL111      0.0557
     17 C         124.3992  153.8724  146.7861 C.3     1  UNL111     -0.0679
     18 C         116.0194  154.2056  146.0261 C.2     1  UNL111     -0.0239
     19 C         114.3905  151.8434  146.3649 C.2     1  UNL111     -0.0010
     20 C         114.7642  154.1295  145.5397 C.2     1  UNL111      0.0550
     21 C         124.9939  152.7233  147.3343 C.3     1  UNL111     -0.0662
     22 C         124.8842  154.3720  145.5675 C.3     1  UNL111     -0.0662
     23 C         113.9016  152.9841  145.8472 C.2     1  UNL111      0.0602
     24 C         126.0548  152.0926  146.6791 C.3     1  UNL111     -0.0483
     25 C         125.9424  153.7355  144.9124 C.3     1  UNL111     -0.0483
     26 C         126.5245  152.5999  145.4705 C.3     1  UNL111      0.0166
     27 H         122.1437  152.8285  147.2756 H       1  UNL111      0.1349
     28 H         118.7227  154.5629  146.8604 H       1  UNL111      0.0857
     29 H         119.5870  153.6236  144.7812 H       1  UNL111      0.0549
     30 H         120.3509  152.2884  145.6201 H       1  UNL111      0.0549
     31 H         119.9812  152.1987  148.3444 H       1  UNL111      0.0549
     32 H         119.0114  153.4818  149.0434 H       1  UNL111      0.0549
     33 H         122.0517  153.9291  145.1635 H       1  UNL111      0.0744
     34 H         121.1015  155.2385  145.9233 H       1  UNL111      0.0744
     35 H         120.7524  155.1669  148.4289 H       1  UNL111      0.0744
     36 H         121.4812  153.8145  149.3448 H       1  UNL111      0.0744
     37 H         123.4591  154.5402  148.5747 H       1  UNL111      0.0876
     38 H         123.1315  155.5880  147.1904 H       1  UNL111      0.0876
     39 H         116.4178  153.4053  147.9989 H       1  UNL111      0.1150
     40 H         116.6421  155.0637  145.8003 H       1  UNL111      0.1028
     41 H         113.8153  150.9433  146.5338 H       1  UNL111      0.1139
     42 H         124.6578  152.3124  148.2853 H       1  UNL111      0.0940
     43 H         124.4582  155.2651  145.1133 H       1  UNL111      0.0940
     44 H         126.5177  151.2105  147.1175 H       1  UNL111      0.0993
     45 H         126.3162  154.1317  143.9701 H       1  UNL111      0.0993
@<TRIPOS>UNITY_ATOM_ATTR
5 1
charge 1
@<TRIPOS>BOND
     1     1    20    1
     2     2    23    1
     3     3    26    1
     4     4    15    2
     5     5    11    1
     6     5    12    1
     7     5    13    1
     8     6     8    1
     9     6    14    1
    10     6    15   am
    11     7    15    1
    12     7    16    2
    13     8     9    1
    14     8    10    1
    15     9    11    1
    16    10    12    1
    17    13    17    1
    18    14    16    1
    19    14    18    1
    20    16    19    1
    21    17    21   ar
    22    17    22   ar
    23    18    20    2
    24    19    23    2
    25    20    23    1
    26    21    24   ar
    27    22    25   ar
    28    24    26   ar
    29    25    26   ar
    30     5    27    1
    31     8    28    1
    32     9    29    1
    33     9    30    1
    34    10    31    1
    35    10    32    1
    36    11    33    1
    37    11    34    1
    38    12    35    1
    39    12    36    1
    40    13    37    1
    41    13    38    1
    42    14    39    1
    43    18    40    1
    44    19    41    1
    45    21    42    1
    46    22    43    1
    47    24    44    1
    48    25    45    1
