@<TRIPOS>MOLECULE
41693
 58 60 0 0 0
SMALL
GASTEIGER

@<TRIPOS>ATOM
      1 S         113.3946  151.8012  146.2330 S.3     1  UNL111     -0.1518
      2 O         121.4997  151.8533  148.8822 O.3     1  UNL111     -0.4622
      3 O         122.4659  150.6974  145.0232 O.2     1  UNL111     -0.3820
      4 N         118.0168  153.2241  146.5249 N.4     1  UNL111      0.4273
      5 N         122.3031  152.7857  145.9828 N.am    1  UNL111     -0.2802
      6 C         120.9304  152.5066  146.5810 C.3     1  UNL111      0.0441
      7 C         120.3039  153.7674  147.2594 C.3     1  UNL111     -0.0239
      8 C         119.9573  152.1116  145.4281 C.3     1  UNL111     -0.0239
      9 C         118.8754  153.5521  147.7239 C.3     1  UNL111     -0.0348
     10 C         118.4969  151.9725  145.8375 C.3     1  UNL111     -0.0348
     11 C         121.0496  151.3404  147.6243 C.3     1  UNL111      0.0267
     12 C         116.5407  153.1540  146.9113 C.3     1  UNL111     -0.0333
     13 C         122.9054  154.0517  146.1983 C.3     1  UNL111     -0.0024
     14 C         122.9877  151.7885  145.2651 C.2     1  UNL111      0.1520
     15 C         115.6333  153.3611  145.6932 C.3     1  UNL111     -0.0205
     16 C         124.4110  152.0932  144.8024 C.3     1  UNL111      0.0339
     17 C         122.9569  154.9801  145.1529 C.3     1  UNL111     -0.0551
     18 C         123.4531  154.3692  147.4443 C.3     1  UNL111     -0.0551
     19 C         114.1890  153.3131  146.0858 C.3     1  UNL111     -0.0375
     20 C         121.8590  150.8089  149.7828 C.3     1  UNL111     -0.0028
     21 C         125.1005  150.8716  144.2150 C.3     1  UNL111     -0.0445
     22 C         123.5457  156.2276  145.3597 C.3     1  UNL111     -0.0786
     23 C         124.0413  155.6179  147.6463 C.3     1  UNL111     -0.0786
     24 C         113.3371  154.3640  146.3604 C.3     1  UNL111     -0.0655
     25 C         124.0853  156.5461  146.6058 C.3     1  UNL111     -0.0844
     26 C         112.0254  153.9192  146.6969 C.3     1  UNL111     -0.0698
     27 C         111.9193  152.5470  146.6635 C.3     1  UNL111     -0.0470
     28 H         118.1165  154.0094  145.8654 H       1  UNL111      0.1324
     29 H         120.3080  154.6100  146.5544 H       1  UNL111      0.0582
     30 H         120.8885  154.0932  148.1258 H       1  UNL111      0.0582
     31 H         120.2426  151.1619  144.9675 H       1  UNL111      0.0582
     32 H         120.0274  152.8660  144.6319 H       1  UNL111      0.0582
     33 H         118.7694  152.7413  148.4515 H       1  UNL111      0.0745
     34 H         118.4832  154.4778  148.1587 H       1  UNL111      0.0745
     35 H         117.8812  151.8270  144.9453 H       1  UNL111      0.0745
     36 H         118.3300  151.1309  146.5170 H       1  UNL111      0.0745
     37 H         120.0794  150.8667  147.8008 H       1  UNL111      0.0992
     38 H         121.7324  150.5560  147.2864 H       1  UNL111      0.0992
     39 H         116.3622  153.9523  147.6415 H       1  UNL111      0.0756
     40 H         116.3772  152.1897  147.4057 H       1  UNL111      0.0756
     41 H         115.8293  152.6074  144.9225 H       1  UNL111      0.0626
     42 H         115.8522  154.3340  145.2350 H       1  UNL111      0.0626
     43 H         125.0012  152.4513  145.6520 H       1  UNL111      0.0735
     44 H         124.3763  152.8746  144.0373 H       1  UNL111      0.0735
     45 H         122.5457  154.7408  144.1759 H       1  UNL111      0.0994
     46 H         123.4400  153.6471  148.2572 H       1  UNL111      0.0994
     47 H         122.1595  151.2623  150.7310 H       1  UNL111      0.0816
     48 H         122.7031  150.2373  149.3855 H       1  UNL111      0.0816
     49 H         121.0048  150.1492  149.9626 H       1  UNL111      0.0816
     50 H         125.1542  150.0604  144.9487 H       1  UNL111      0.0319
     51 H         126.1201  151.1220  143.9061 H       1  UNL111      0.0319
     52 H         124.5609  150.4976  143.3386 H       1  UNL111      0.0319
     53 H         123.5948  156.9503  144.5482 H       1  UNL111      0.0890
     54 H         124.4764  155.8652  148.6121 H       1  UNL111      0.0890
     55 H         113.6243  155.4085  146.3175 H       1  UNL111      0.0940
     56 H         124.5530  157.5159  146.7634 H       1  UNL111      0.0876
     57 H         111.1958  154.5724  146.9431 H       1  UNL111      0.0922
     58 H         111.0419  151.9466  146.8666 H       1  UNL111      0.1086
@<TRIPOS>UNITY_ATOM_ATTR
4 1
charge 1
@<TRIPOS>BOND
     1     1    19   ar
     2     1    27   ar
     3     2    11    1
     4     2    20    1
     5     3    14    2
     6     4     9    1
     7     4    10    1
     8     4    12    1
     9     5     6    1
    10     5    13    1
    11     5    14   am
    12     6     7    1
    13     6     8    1
    14     6    11    1
    15     7     9    1
    16     8    10    1
    17    12    15    1
    18    13    17   ar
    19    13    18   ar
    20    14    16    1
    21    15    19    1
    22    16    21    1
    23    17    22   ar
    24    18    23   ar
    25    19    24   ar
    26    22    25   ar
    27    23    25   ar
    28    24    26   ar
    29    26    27   ar
    30     4    28    1
    31     7    29    1
    32     7    30    1
    33     8    31    1
    34     8    32    1
    35     9    33    1
    36     9    34    1
    37    10    35    1
    38    10    36    1
    39    11    37    1
    40    11    38    1
    41    12    39    1
    42    12    40    1
    43    15    41    1
    44    15    42    1
    45    16    43    1
    46    16    44    1
    47    17    45    1
    48    18    46    1
    49    20    47    1
    50    20    48    1
    51    20    49    1
    52    21    50    1
    53    21    51    1
    54    21    52    1
    55    22    53    1
    56    23    54    1
    57    24    55    1
    58    25    56    1
    59    26    57    1
    60    27    58    1
@<TRIPOS>MOLECULE
165365136
 33 35 0 0 0
SMALL
GASTEIGER

@<TRIPOS>ATOM
      1 S         126.7625  154.4531  146.7586 S.3     1  UNL111     -0.1127
      2 O         118.5884  155.0310  143.9461 O.3     1  UNL111     -0.3680
      3 O         117.2791  155.4017  147.7145 O.2     1  UNL111     -0.3816
      4 N         121.6950  152.4455  147.6670 N.4     1  UNL111      0.4560
      5 N         117.2715  153.2768  146.8412 N.am    1  UNL111     -0.2554
      6 C         118.6306  153.5278  146.2933 C.3     1  UNL111      0.1245
      7 C         119.4384  152.2637  146.0895 C.3     1  UNL111      0.0887
      8 C         119.5622  154.1427  147.3106 C.3     1  UNL111      0.0887
      9 C         120.7884  151.8054  146.6868 C.3     1  UNL111      0.0659
     10 C         120.9078  153.6770  147.9009 C.3     1  UNL111      0.0659
     11 C         118.5737  154.3196  145.0635 C.3     1  UNL111      0.1527
     12 C         123.0225  152.7037  147.1432 C.3     1  UNL111      0.0697
     13 C         116.5800  152.0622  146.4956 C.2     1  UNL111      0.0413
     14 C         116.6543  154.3594  147.4969 C.2     1  UNL111      0.1551
     15 C         124.4369  152.9645  146.6161 C.3     1  UNL111      0.0894
     16 C         115.1872  154.2692  147.9021 C.3     1  UNL111      0.0342
     17 C         116.8474  151.3969  145.2942 C.2     1  UNL111      0.0218
     18 C         115.6509  151.4781  147.3579 C.2     1  UNL111      0.0218
     19 C         125.7592  153.2067  146.1509 C.2     1  UNL111      0.0189
     20 C         119.8578  154.8265  143.3960 C.3     1  UNL111      0.1788
     21 C         114.6263  155.6092  148.3580 C.3     1  UNL111     -0.0445
     22 C         116.2041  150.2068  144.9573 C.2     1  UNL111      0.0070
     23 C         115.0000  150.2878  147.0355 C.2     1  UNL111      0.0070
     24 C         126.3960  152.4762  145.1751 C.2     1  UNL111      0.0105
     25 C         115.2772  149.6518  145.8313 C.2     1  UNL111      0.0025
     26 C         127.7102  152.9357  144.9215 C.2     1  UNL111      0.0158
     27 C         128.0250  154.0035  145.7176 C.2     1  UNL111      0.0310
     28 H         121.7456  151.8888  148.5290 H       1  UNL111      0.1721
     29 H         115.0950  153.5654  148.7346 H       1  UNL111      0.0735
     30 H         114.5931  153.9235  147.0504 H       1  UNL111      0.0735
     31 H         115.1671  155.9868  149.2321 H       1  UNL111      0.0319
     32 H         113.5710  155.5065  148.6294 H       1  UNL111      0.0319
     33 H         114.7046  156.3586  147.5634 H       1  UNL111      0.0319
@<TRIPOS>UNITY_ATOM_ATTR
4 1
charge 1
@<TRIPOS>BOND
     1     1    19    1
     2     1    27    1
     3     2    11    1
     4     2    20    1
     5     3    14    2
     6     4     9    1
     7     4    10    1
     8     4    12    1
     9     5     6    1
    10     5    13    1
    11     5    14   am
    12     6     7    1
    13     6     8    1
    14     6    11    1
    15     7     9    1
    16     8    10    1
    17    12    15    1
    18    13    17    2
    19    13    18    1
    20    14    16    1
    21    15    19    1
    22    16    21    1
    23    17    22    1
    24    18    23    2
    25    19    24    2
    26    22    25    2
    27    23    25    1
    28    24    26    1
    29    26    27    2
    30     4    28    1
    31    16    29    1
    32    16    30    1
    33    21    31    1
    34    21    32    1
    35    21    33    1
@<TRIPOS>MOLECULE
19772622
 59 61 0 0 0
SMALL
GASTEIGER

@<TRIPOS>ATOM
      1 S         116.0465  154.6634  146.9205 S.3     1  UNL111     -0.1396
      2 O         121.8668  150.9523  148.2421 O.3     1  UNL111     -0.4622
      3 O         114.3445  151.2053  147.3322 O.3     1  UNL111     -0.4354
      4 O         122.8581  151.6884  144.2555 O.2     1  UNL111     -0.3820
      5 N         117.9733  151.7591  146.3686 N.4     1  UNL111      0.4303
      6 N         122.0717  153.0877  145.9080 N.am    1  UNL111     -0.2801
      7 C         120.9405  152.1456  146.2991 C.3     1  UNL111      0.0441
      8 C         120.0692  151.8603  145.0362 C.3     1  UNL111     -0.0237
      9 C         119.9773  152.7792  147.3550 C.3     1  UNL111     -0.0237
     10 C         118.7875  151.0814  145.3027 C.3     1  UNL111     -0.0331
     11 C         118.7576  151.9244  147.6435 C.3     1  UNL111     -0.0331
     12 C         121.5488  150.8099  146.8541 C.3     1  UNL111      0.0267
     13 C         116.6335  151.0536  146.5815 C.3     1  UNL111     -0.0064
     14 C         122.2395  154.2978  146.6291 C.3     1  UNL111     -0.0024
     15 C         122.9872  152.7307  144.9021 C.2     1  UNL111      0.1520
     16 C         115.5625  151.9413  147.2647 C.3     1  UNL111      0.0464
     17 C         124.1613  153.6719  144.6405 C.3     1  UNL111      0.0339
     18 C         121.8618  155.5103  146.0429 C.3     1  UNL111     -0.0551
     19 C         122.7850  154.2814  147.9158 C.3     1  UNL111     -0.0551
     20 C         115.2902  153.1888  146.4710 C.3     1  UNL111     -0.0051
     21 C         122.6398  149.8561  148.7237 C.3     1  UNL111     -0.0028
     22 C         125.1530  153.0944  143.6426 C.3     1  UNL111     -0.0445
     23 C         122.0211  156.7027  146.7492 C.3     1  UNL111     -0.0786
     24 C         122.9429  155.4763  148.6181 C.3     1  UNL111     -0.0786
     25 C         114.4974  153.3539  145.3504 C.3     1  UNL111     -0.0554
     26 C         122.5595  156.6846  148.0359 C.3     1  UNL111     -0.0844
     27 C         114.5138  154.6934  144.8661 C.3     1  UNL111     -0.0677
     28 C         115.3163  155.5100  145.6299 C.3     1  UNL111     -0.0447
     29 H         113.6704  151.7834  147.7385 H       1  UNL111      0.2439
     30 H         117.7460  152.7018  146.0123 H       1  UNL111      0.1350
     31 H         120.6239  151.2961  144.2818 H       1  UNL111      0.0582
     32 H         119.8059  152.8176  144.5650 H       1  UNL111      0.0582
     33 H         119.6296  153.7588  146.9996 H       1  UNL111      0.0582
     34 H         120.4856  152.9646  148.3069 H       1  UNL111      0.0582
     35 H         118.1759  151.0552  144.3940 H       1  UNL111      0.0748
     36 H         118.9754  150.0533  145.6272 H       1  UNL111      0.0748
     37 H         119.0056  150.9283  148.0233 H       1  UNL111      0.0748
     38 H         118.1132  152.4299  148.3681 H       1  UNL111      0.0748
     39 H         120.8331  149.9863  146.7738 H       1  UNL111      0.0992
     40 H         122.4461  150.5105  146.3049 H       1  UNL111      0.0992
     41 H         116.8239  150.1423  147.1606 H       1  UNL111      0.0890
     42 H         116.2738  150.7423  145.5926 H       1  UNL111      0.0890
     43 H         115.8581  152.1727  148.2933 H       1  UNL111      0.1237
     44 H         124.6867  153.8674  145.5808 H       1  UNL111      0.0735
     45 H         123.7781  154.6164  144.2426 H       1  UNL111      0.0735
     46 H         121.4463  155.5370  145.0391 H       1  UNL111      0.0994
     47 H         123.1012  153.3473  148.3736 H       1  UNL111      0.0994
     48 H         122.8198  150.0066  149.7913 H       1  UNL111      0.0816
     49 H         123.6044  149.8151  148.2088 H       1  UNL111      0.0816
     50 H         122.0963  148.9164  148.5869 H       1  UNL111      0.0816
     51 H         125.5632  152.1446  144.0013 H       1  UNL111      0.0319
     52 H         125.9841  153.7892  143.4868 H       1  UNL111      0.0319
     53 H         124.6759  152.9108  142.6743 H       1  UNL111      0.0319
     54 H         121.7350  157.6491  146.2958 H       1  UNL111      0.0890
     55 H         123.3744  155.4682  149.6165 H       1  UNL111      0.0890
     56 H         113.9181  152.5545  144.8991 H       1  UNL111      0.0963
     57 H         122.6915  157.6160  148.5827 H       1  UNL111      0.0876
     58 H         113.9541  155.0457  144.0063 H       1  UNL111      0.0925
     59 H         115.4988  156.5688  145.4947 H       1  UNL111      0.1089
@<TRIPOS>UNITY_ATOM_ATTR
5 1
charge 1
@<TRIPOS>BOND
     1     1    20   ar
     2     1    28   ar
     3     2    12    1
     4     2    21    1
     5     3    16    1
     6     4    15    2
     7     5    10    1
     8     5    11    1
     9     5    13    1
    10     6     7    1
    11     6    14    1
    12     6    15   am
    13     7     8    1
    14     7     9    1
    15     7    12    1
    16     8    10    1
    17     9    11    1
    18    13    16    1
    19    14    18   ar
    20    14    19   ar
    21    15    17    1
    22    16    20    1
    23    17    22    1
    24    18    23   ar
    25    19    24   ar
    26    20    25   ar
    27    23    26   ar
    28    24    26   ar
    29    25    27   ar
    30    27    28   ar
    31     3    29    1
    32     5    30    1
    33     8    31    1
    34     8    32    1
    35     9    33    1
    36     9    34    1
    37    10    35    1
    38    10    36    1
    39    11    37    1
    40    11    38    1
    41    12    39    1
    42    12    40    1
    43    13    41    1
    44    13    42    1
    45    16    43    1
    46    17    44    1
    47    17    45    1
    48    18    46    1
    49    19    47    1
    50    21    48    1
    51    21    49    1
    52    21    50    1
    53    22    51    1
    54    22    52    1
    55    22    53    1
    56    23    54    1
    57    24    55    1
    58    25    56    1
    59    26    57    1
    60    27    58    1
    61    28    59    1
@<TRIPOS>MOLECULE
10881633
 47 49 0 0 0
SMALL
GASTEIGER

@<TRIPOS>ATOM
      1 S         113.8392  154.0693  146.1007 S.2     1  UNL111     -0.1518
      2 O         121.4450  156.2663  146.2050 O.3     1  UNL111     -0.4510
      3 N         118.5637  152.9840  146.3782 N.4     1  UNL111      0.4272
      4 N         122.6737  153.5637  147.1963 N.pl3   1  UNL111     -0.4000
      5 C         121.4146  153.8196  146.4755 C.3     1  UNL111      0.0258
      6 C         120.3728  154.1307  147.5850 C.3     1  UNL111     -0.0272
      7 C         120.9347  152.5507  145.7361 C.3     1  UNL111     -0.0272
      8 C         118.9671  154.2835  147.0402 C.3     1  UNL111     -0.0354
      9 C         119.4951  152.6378  145.2429 C.3     1  UNL111     -0.0354
     10 C         121.5903  155.0295  145.5112 C.3     1  UNL111      0.0229
     11 C         117.1097  152.9833  145.9130 C.3     1  UNL111     -0.0333
     12 C         116.1396  152.8564  147.0934 C.3     1  UNL111     -0.0205
     13 C         123.8499  152.9703  146.7799 C.ar    1  UNL111     -0.0223
     14 C         114.7286  152.6976  146.6160 C.ar    1  UNL111     -0.0375
     15 C         124.7496  152.5404  147.7702 C.ar    1  UNL111     -0.0588
     16 C         124.1890  152.6965  145.4539 C.ar    1  UNL111     -0.0588
     17 C         113.9779  151.5424  146.5270 C.ar    1  UNL111     -0.0655
     18 C         125.9403  151.8794  147.4508 C.ar    1  UNL111     -0.0792
     19 C         125.3812  152.0375  145.1234 C.ar    1  UNL111     -0.0792
     20 C         126.2563  151.6276  146.1229 C.ar    1  UNL111     -0.0845
     21 C         112.6671  151.7896  146.0250 C.ar    1  UNL111     -0.0698
     22 C         112.4600  153.1230  145.7528 C.ar    1  UNL111     -0.0470
     23 H         122.2801  156.7607  146.0919 H       1  UNL111      0.2353
     24 H         118.6548  152.2314  147.0766 H       1  UNL111      0.1324
     25 H         122.7719  154.0448  148.0899 H       1  UNL111      0.1846
     26 H         120.6475  155.0332  148.1453 H       1  UNL111      0.0575
     27 H         120.3788  153.3205  148.3293 H       1  UNL111      0.0575
     28 H         121.0245  151.6816  146.4026 H       1  UNL111      0.0575
     29 H         121.5611  152.3323  144.8671 H       1  UNL111      0.0575
     30 H         118.2714  154.4673  147.8631 H       1  UNL111      0.0744
     31 H         118.8726  155.0851  146.3010 H       1  UNL111      0.0744
     32 H         119.3621  153.3927  144.4614 H       1  UNL111      0.0744
     33 H         119.1794  151.6653  144.8495 H       1  UNL111      0.0744
     34 H         122.5633  155.0235  145.0110 H       1  UNL111      0.0971
     35 H         120.8294  155.0302  144.7266 H       1  UNL111      0.0971
     36 H         116.9931  152.1223  145.2441 H       1  UNL111      0.0756
     37 H         116.9516  153.8993  145.3324 H       1  UNL111      0.0756
     38 H         116.2065  153.7298  147.7518 H       1  UNL111      0.0626
     39 H         116.4136  151.9862  147.7032 H       1  UNL111      0.0626
     40 H         124.5261  152.7077  148.8216 H       1  UNL111      0.0987
     41 H         123.5636  153.0140  144.6291 H       1  UNL111      0.0987
     42 H         114.3360  150.5598  146.8130 H       1  UNL111      0.0940
     43 H         126.6148  151.5610  148.2419 H       1  UNL111      0.0890
     44 H         125.6283  151.8501  144.0814 H       1  UNL111      0.0890
     45 H         127.1814  151.1167  145.8673 H       1  UNL111      0.0876
     46 H         111.9084  151.0291  145.8781 H       1  UNL111      0.0922
     47 H         111.5598  153.5878  145.3717 H       1  UNL111      0.1086
@<TRIPOS>UNITY_ATOM_ATTR
3 1
charge 1
@<TRIPOS>BOND
     1     1    14   ar
     2     1    22   ar
     3     2    10    1
     4     3     8    1
     5     3     9    1
     6     3    11    1
     7     4     5    1
     8     4    13    1
     9     5     6    1
    10     5     7    1
    11     5    10    1
    12     6     8    1
    13     7     9    1
    14    11    12    1
    15    12    14    1
    16    13    15   ar
    17    13    16   ar
    18    14    17   ar
    19    15    18   ar
    20    16    19   ar
    21    17    21   ar
    22    18    20   ar
    23    19    20   ar
    24    21    22   ar
    25     2    23    1
    26     3    24    1
    27     4    25    1
    28     6    26    1
    29     6    27    1
    30     7    28    1
    31     7    29    1
    32     8    30    1
    33     8    31    1
    34     9    32    1
    35     9    33    1
    36    10    34    1
    37    10    35    1
    38    11    36    1
    39    11    37    1
    40    12    38    1
    41    12    39    1
    42    15    40    1
    43    16    41    1
    44    17    42    1
    45    18    43    1
    46    19    44    1
    47    20    45    1
    48    21    46    1
    49    22    47    1
@<TRIPOS>MOLECULE
14494472
 63 65 0 0 0
SMALL
GASTEIGER

@<TRIPOS>ATOM
      1 S         113.2348  152.0375  145.6031 S.3     1  UNL111     -0.1518
      2 O         122.0882  151.0444  146.2837 O.3     1  UNL111     -0.5191
      3 O         122.1763  153.4062  143.4285 O.2     1  UNL111     -0.3819
      4 O         120.5936  150.0729  147.7104 O.2     1  UNL111     -0.3407
      5 N         117.8152  153.2844  146.5364 N.4     1  UNL111      0.4274
      6 N         122.0216  153.9060  145.6725 N.am    1  UNL111     -0.2764
      7 C         120.7404  153.1037  145.8611 C.3     1  UNL111      0.0574
      8 C         120.1654  153.2067  147.3106 C.3     1  UNL111     -0.0206
      9 C         119.6488  153.6936  144.9181 C.3     1  UNL111     -0.0206
     10 C         118.7769  152.6037  147.4828 C.3     1  UNL111     -0.0342
     11 C         118.2572  153.1103  145.1074 C.3     1  UNL111     -0.0342
     12 C         121.0145  151.6029  145.4987 C.3     1  UNL111      0.0768
     13 C         116.3877  152.7921  146.7782 C.3     1  UNL111     -0.0333
     14 C         122.5189  154.6766  146.7542 C.3     1  UNL111     -0.0017
     15 C         122.6681  153.9415  144.4238 C.2     1  UNL111      0.1526
     16 C         115.3518  153.7501  146.1781 C.3     1  UNL111     -0.0205
     17 C         124.0106  154.6650  144.3417 C.3     1  UNL111      0.0340
     18 C         123.2267  154.0613  147.7901 C.3     1  UNL111     -0.0550
     19 C         122.3046  156.0590  146.7749 C.3     1  UNL111     -0.0550
     20 C         113.9567  153.3087  146.4990 C.3     1  UNL111     -0.0375
     21 C         121.7424  150.2379  147.3207 C.2     1  UNL111      0.2134
     22 C         124.7070  154.4367  143.0093 C.3     1  UNL111     -0.0445
     23 C         123.7065  154.8270  148.8529 C.3     1  UNL111     -0.0786
     24 C         122.7864  156.8205  147.8394 C.3     1  UNL111     -0.0786
     25 C         122.9601  149.6064  147.9425 C.3     1  UNL111      0.0567
     26 C         113.0979  153.8045  147.4594 C.3     1  UNL111     -0.0655
     27 C         123.4837  156.2040  148.8782 C.3     1  UNL111     -0.0844
     28 C         111.8433  153.1281  147.4605 C.3     1  UNL111     -0.0698
     29 C         111.7851  152.1433  146.5004 C.3     1  UNL111     -0.0470
     30 C         122.8901  148.0959  147.8402 C.3     1  UNL111     -0.0382
     31 H         117.8272  154.2892  146.7630 H       1  UNL111      0.1325
     32 H         120.0902  154.2625  147.6039 H       1  UNL111      0.0590
     33 H         120.8379  152.7388  148.0362 H       1  UNL111      0.0590
     34 H         119.9117  153.5526  143.8656 H       1  UNL111      0.0590
     35 H         119.5978  154.7810  145.0698 H       1  UNL111      0.0590
     36 H         118.7258  151.5327  147.2795 H       1  UNL111      0.0746
     37 H         118.4167  152.7905  148.5003 H       1  UNL111      0.0746
     38 H         117.5490  153.6480  144.4712 H       1  UNL111      0.0746
     39 H         118.2117  152.0437  144.8650 H       1  UNL111      0.0746
     40 H         120.1117  150.9898  145.5877 H       1  UNL111      0.1284
     41 H         121.3187  151.4912  144.4547 H       1  UNL111      0.1284
     42 H         116.2519  152.7359  147.8648 H       1  UNL111      0.0756
     43 H         116.3179  151.7793  146.3652 H       1  UNL111      0.0756
     44 H         115.4669  153.8241  145.0911 H       1  UNL111      0.0626
     45 H         115.5128  154.7600  146.5762 H       1  UNL111      0.0626
     46 H         124.6654  154.3079  145.1431 H       1  UNL111      0.0735
     47 H         123.8445  155.7390  144.4695 H       1  UNL111      0.0735
     48 H         123.4307  152.9948  147.7671 H       1  UNL111      0.0994
     49 H         121.7717  156.5519  145.9661 H       1  UNL111      0.0994
     50 H         124.8870  153.3702  142.8383 H       1  UNL111      0.0319
     51 H         125.6710  154.9544  142.9902 H       1  UNL111      0.0319
     52 H         124.1014  154.8132  142.1782 H       1  UNL111      0.0319
     53 H         124.2685  154.3556  149.6563 H       1  UNL111      0.0890
     54 H         122.6309  157.8970  147.8564 H       1  UNL111      0.0890
     55 H         123.0168  149.9307  148.9868 H       1  UNL111      0.0841
     56 H         123.8647  149.9693  147.4421 H       1  UNL111      0.0841
     57 H         113.3410  154.6200  148.1311 H       1  UNL111      0.0940
     58 H         123.8690  156.8010  149.7027 H       1  UNL111      0.0876
     59 H         111.0191  153.3564  148.1268 H       1  UNL111      0.0922
     60 H         110.9554  151.4844  146.2786 H       1  UNL111      0.1086
     61 H         122.0078  147.7050  148.3577 H       1  UNL111      0.0335
     62 H         123.7788  147.6408  148.2878 H       1  UNL111      0.0335
     63 H         122.8302  147.7774  146.7941 H       1  UNL111      0.0335
@<TRIPOS>UNITY_ATOM_ATTR
5 1
charge 1
@<TRIPOS>BOND
     1     1    20   ar
     2     1    29   ar
     3     2    12    1
     4     2    21    1
     5     3    15    2
     6     4    21    2
     7     5    10    1
     8     5    11    1
     9     5    13    1
    10     6     7    1
    11     6    14    1
    12     6    15   am
    13     7     8    1
    14     7     9    1
    15     7    12    1
    16     8    10    1
    17     9    11    1
    18    13    16    1
    19    14    18   ar
    20    14    19   ar
    21    15    17    1
    22    16    20    1
    23    17    22    1
    24    18    23   ar
    25    19    24   ar
    26    20    26   ar
    27    21    25    1
    28    23    27   ar
    29    24    27   ar
    30    25    30    1
    31    26    28   ar
    32    28    29   ar
    33     5    31    1
    34     8    32    1
    35     8    33    1
    36     9    34    1
    37     9    35    1
    38    10    36    1
    39    10    37    1
    40    11    38    1
    41    11    39    1
    42    12    40    1
    43    12    41    1
    44    13    42    1
    45    13    43    1
    46    16    44    1
    47    16    45    1
    48    17    46    1
    49    17    47    1
    50    18    48    1
    51    19    49    1
    52    22    50    1
    53    22    51    1
    54    22    52    1
    55    23    53    1
    56    24    54    1
    57    25    55    1
    58    25    56    1
    59    26    57    1
    60    27    58    1
    61    28    59    1
    62    29    60    1
    63    30    61    1
    64    30    62    1
    65    30    63    1
@<TRIPOS>MOLECULE
14879884
 58 60 0 0 0
SMALL
GASTEIGER

@<TRIPOS>ATOM
      1 S         111.7713  152.4034  146.4955 S.3     1  UNL111     -0.1575
      2 O         121.4843  151.8488  148.8682 O.3     1  UNL111     -0.4622
      3 O         122.4945  150.7149  145.0049 O.2     1  UNL111     -0.3820
      4 N         118.0083  153.1784  146.4963 N.4     1  UNL111      0.4271
      5 N         122.3041  152.7973  145.9718 N.am    1  UNL111     -0.2802
      6 C         120.9319  152.5001  146.5621 C.3     1  UNL111      0.0441
      7 C         120.2864  153.7517  147.2393 C.3     1  UNL111     -0.0239
      8 C         119.9692  152.0972  145.4030 C.3     1  UNL111     -0.0239
      9 C         118.8594  153.5158  147.6987 C.3     1  UNL111     -0.0349
     10 C         118.5088  151.9378  145.8049 C.3     1  UNL111     -0.0349
     11 C         121.0600  151.3324  147.6027 C.3     1  UNL111      0.0267
     12 C         116.5334  153.0878  146.8798 C.3     1  UNL111     -0.0352
     13 C         122.8937  154.0671  146.2004 C.3     1  UNL111     -0.0024
     14 C         123.0034  151.8105  145.2538 C.2     1  UNL111      0.1520
     15 C         115.6225  153.2802  145.6611 C.3     1  UNL111     -0.0282
     16 C         124.4259  152.1321  144.8002 C.3     1  UNL111      0.0339
     17 C         122.9444  155.0030  145.1618 C.3     1  UNL111     -0.0551
     18 C         123.4302  154.3806  147.4522 C.3     1  UNL111     -0.0551
     19 C         114.1743  153.2381  146.0456 C.3     1  UNL111     -0.0597
     20 C         121.8534  150.8081  149.7691 C.3     1  UNL111     -0.0028
     21 C         125.1312  150.9204  144.2110 C.3     1  UNL111     -0.0445
     22 C         123.5212  156.2540  145.3811 C.3     1  UNL111     -0.0786
     23 C         124.0063  155.6328  147.6669 C.3     1  UNL111     -0.0786
     24 C         113.4298  154.3590  146.5435 C.3     1  UNL111     -0.0654
     25 C         113.3704  152.1156  145.9629 C.3     1  UNL111     -0.0428
     26 C         124.0495  156.5685  146.6331 C.3     1  UNL111     -0.0844
     27 C         112.1200  154.0410  146.8278 C.3     1  UNL111     -0.0471
     28 H         118.0982  153.9683  145.8405 H       1  UNL111      0.1324
     29 H         120.2819  154.5950  146.5352 H       1  UNL111      0.0582
     30 H         120.8632  154.0844  148.1083 H       1  UNL111      0.0582
     31 H         120.2684  151.1531  144.9400 H       1  UNL111      0.0582
     32 H         120.0335  152.8555  144.6101 H       1  UNL111      0.0582
     33 H         118.7621  152.7020  148.4242 H       1  UNL111      0.0745
     34 H         118.4534  154.4352  148.1342 H       1  UNL111      0.0745
     35 H         117.8991  151.7893  144.9090 H       1  UNL111      0.0745
     36 H         118.3495  151.0904  146.4789 H       1  UNL111      0.0745
     37 H         120.0968  150.8398  147.7654 H       1  UNL111      0.0992
     38 H         121.7619  150.5623  147.2707 H       1  UNL111      0.0992
     39 H         116.3436  153.8830  147.6102 H       1  UNL111      0.0752
     40 H         116.3773  152.1208  147.3717 H       1  UNL111      0.0752
     41 H         115.8150  152.5076  144.9085 H       1  UNL111      0.0595
     42 H         115.8414  154.2432  145.1827 H       1  UNL111      0.0595
     43 H         125.0078  152.4922  145.6547 H       1  UNL111      0.0735
     44 H         124.3871  152.9167  144.0386 H       1  UNL111      0.0735
     45 H         122.5420  154.7671  144.1803 H       1  UNL111      0.0994
     46 H         123.4180  153.6530  148.2601 H       1  UNL111      0.0994
     47 H         122.1331  151.2636  150.7226 H       1  UNL111      0.0816
     48 H         122.7136  150.2550  149.3801 H       1  UNL111      0.0816
     49 H         121.0104  150.1309  149.9359 H       1  UNL111      0.0816
     50 H         125.1894  150.1065  144.9412 H       1  UNL111      0.0319
     51 H         126.1498  151.1828  143.9087 H       1  UNL111      0.0319
     52 H         124.6002  150.5449  143.3300 H       1  UNL111      0.0319
     53 H         123.5697  156.9827  144.5750 H       1  UNL111      0.0890
     54 H         124.4328  155.8771  148.6373 H       1  UNL111      0.0890
     55 H         113.8249  155.3585  146.6855 H       1  UNL111      0.0940
     56 H         113.6325  151.1261  145.6115 H       1  UNL111      0.1104
     57 H         124.5079  157.5411  146.8005 H       1  UNL111      0.0876
     58 H         111.3452  154.6929  147.2105 H       1  UNL111      0.1086
@<TRIPOS>UNITY_ATOM_ATTR
4 1
charge 1
@<TRIPOS>BOND
     1     1    25   ar
     2     1    27   ar
     3     2    11    1
     4     2    20    1
     5     3    14    2
     6     4     9    1
     7     4    10    1
     8     4    12    1
     9     5     6    1
    10     5    13    1
    11     5    14   am
    12     6     7    1
    13     6     8    1
    14     6    11    1
    15     7     9    1
    16     8    10    1
    17    12    15    1
    18    13    17   ar
    19    13    18   ar
    20    14    16    1
    21    15    19    1
    22    16    21    1
    23    17    22   ar
    24    18    23   ar
    25    19    24   ar
    26    19    25   ar
    27    22    26   ar
    28    23    26   ar
    29    24    27   ar
    30     4    28    1
    31     7    29    1
    32     7    30    1
    33     8    31    1
    34     8    32    1
    35     9    33    1
    36     9    34    1
    37    10    35    1
    38    10    36    1
    39    11    37    1
    40    11    38    1
    41    12    39    1
    42    12    40    1
    43    15    41    1
    44    15    42    1
    45    16    43    1
    46    16    44    1
    47    17    45    1
    48    18    46    1
    49    20    47    1
    50    20    48    1
    51    20    49    1
    52    21    50    1
    53    21    51    1
    54    21    52    1
    55    22    53    1
    56    23    54    1
    57    24    55    1
    58    25    56    1
    59    26    57    1
    60    27    58    1
@<TRIPOS>MOLECULE
15295498
 50 52 0 0 0
SMALL
GASTEIGER

@<TRIPOS>ATOM
      1 S         125.4196  152.5995  147.9116 S.2     1  UNL111     -0.1518
      2 O         116.6415  155.7729  146.7883 O.3     1  UNL111     -0.4628
      3 N         121.1925  153.5792  145.7741 N.4     1  UNL111      0.4272
      4 N         117.8692  153.1658  147.1885 N.pl3   1  UNL111     -0.3998
      5 C         118.2898  154.1016  146.1112 C.3     1  UNL111      0.0265
      6 C         119.3926  155.0093  146.7097 C.3     1  UNL111     -0.0270
      7 C         118.8736  153.3705  144.8924 C.3     1  UNL111     -0.0270
      8 C         120.6679  154.2468  147.0265 C.3     1  UNL111     -0.0353
      9 C         120.1579  152.6235  145.2180 C.3     1  UNL111     -0.0353
     10 C         117.0944  154.9991  145.6708 C.3     1  UNL111      0.0236
     11 C         122.5136  152.8529  146.0181 C.3     1  UNL111     -0.0333
     12 C         123.6867  153.8343  146.1194 C.3     1  UNL111     -0.0205
     13 C         116.8571  152.2194  146.9768 C.ar    1  UNL111     -0.0223
     14 C         124.9778  153.1054  146.3341 C.ar    1  UNL111     -0.0375
     15 C         115.5356  152.5217  147.3355 C.ar    1  UNL111     -0.0588
     16 C         117.1085  150.9857  146.3724 C.ar    1  UNL111     -0.0588
     17 C         115.4925  156.5469  146.4588 C.3     1  UNL111     -0.0029
     18 C         114.4966  151.6197  147.0941 C.ar    1  UNL111     -0.0792
     19 C         116.0724  150.0777  146.1311 C.ar    1  UNL111     -0.0792
     20 C         125.9350  152.7576  145.4022 C.ar    1  UNL111     -0.0655
     21 C         114.7658  150.3966  146.4889 C.ar    1  UNL111     -0.0845
     22 C         127.0327  152.0650  145.9914 C.ar    1  UNL111     -0.0698
     23 C         126.8794  151.9123  147.3509 C.ar    1  UNL111     -0.0470
     24 H         121.3652  154.3014  145.0625 H       1  UNL111      0.1324
     25 H         117.6448  153.6851  148.0454 H       1  UNL111      0.1846
     26 H         119.0442  155.4910  147.6322 H       1  UNL111      0.0575
     27 H         119.6279  155.8185  146.0052 H       1  UNL111      0.0575
     28 H         119.0915  154.1019  144.1016 H       1  UNL111      0.0575
     29 H         118.1463  152.6766  144.4576 H       1  UNL111      0.0575
     30 H         121.4338  154.9436  147.3773 H       1  UNL111      0.0744
     31 H         120.5163  153.4709  147.7849 H       1  UNL111      0.0744
     32 H         120.0207  151.8292  145.9569 H       1  UNL111      0.0744
     33 H         120.5777  152.1918  144.3030 H       1  UNL111      0.0744
     34 H         117.4142  155.6878  144.8788 H       1  UNL111      0.0986
     35 H         116.2705  154.3926  145.2775 H       1  UNL111      0.0986
     36 H         122.6701  152.1817  145.1651 H       1  UNL111      0.0756
     37 H         122.3905  152.2432  146.9206 H       1  UNL111      0.0756
     38 H         123.5333  154.5520  146.9328 H       1  UNL111      0.0626
     39 H         123.7516  154.4238  145.1961 H       1  UNL111      0.0626
     40 H         115.2979  153.4729  147.8072 H       1  UNL111      0.0987
     41 H         118.1160  150.6876  146.1116 H       1  UNL111      0.0987
     42 H         115.2014  157.1220  147.3417 H       1  UNL111      0.0816
     43 H         114.6611  155.8942  146.1761 H       1  UNL111      0.0816
     44 H         115.7210  157.2427  145.6459 H       1  UNL111      0.0816
     45 H         113.4790  151.8719  147.3822 H       1  UNL111      0.0890
     46 H         116.2860  149.1146  145.6738 H       1  UNL111      0.0890
     47 H         125.8683  152.9886  144.3451 H       1  UNL111      0.0940
     48 H         113.9602  149.6894  146.3062 H       1  UNL111      0.0876
     49 H         127.8979  151.7023  145.4478 H       1  UNL111      0.0922
     50 H         127.5599  151.4339  148.0436 H       1  UNL111      0.1086
@<TRIPOS>UNITY_ATOM_ATTR
3 1
charge 1
@<TRIPOS>BOND
     1     1    14   ar
     2     1    23   ar
     3     2    10    1
     4     2    17    1
     5     3     8    1
     6     3     9    1
     7     3    11    1
     8     4     5    1
     9     4    13    1
    10     5     6    1
    11     5     7    1
    12     5    10    1
    13     6     8    1
    14     7     9    1
    15    11    12    1
    16    12    14    1
    17    13    15   ar
    18    13    16   ar
    19    14    20   ar
    20    15    18   ar
    21    16    19   ar
    22    18    21   ar
    23    19    21   ar
    24    20    22   ar
    25    22    23   ar
    26     3    24    1
    27     4    25    1
    28     6    26    1
    29     6    27    1
    30     7    28    1
    31     7    29    1
    32     8    30    1
    33     8    31    1
    34     9    32    1
    35     9    33    1
    36    10    34    1
    37    10    35    1
    38    11    36    1
    39    11    37    1
    40    12    38    1
    41    12    39    1
    42    15    40    1
    43    16    41    1
    44    17    42    1
    45    17    43    1
    46    17    44    1
    47    18    45    1
    48    19    46    1
    49    20    47    1
    50    21    48    1
    51    22    49    1
    52    23    50    1
@<TRIPOS>MOLECULE
155928981
 58 60 0 0 0
SMALL
GASTEIGER

@<TRIPOS>ATOM
      1 S         114.0600  152.6946  147.3483 S.3     1  UNL1111    -0.1518
      2 O         117.5554  156.3848  147.2126 O.co2   1  UNL1111    -0.7568
      3 O         122.9555  155.2178  147.3671 O.3     1  UNL1111    -0.4622
      4 O         122.4267  153.6710  143.8035 O.2     1  UNL1111    -0.3820
      5 N         118.2666  155.2413  146.9238 N.3     1  UNL1111     0.4021
      6 N         121.8351  152.8650  145.8890 N.am    1  UNL1111    -0.2802
      7 C         121.0440  154.1120  146.2737 C.3     1  UNL1111     0.0437
      8 C         119.9199  154.3282  145.2165 C.3     1  UNL1111    -0.0266
      9 C         120.3403  153.9770  147.6650 C.3     1  UNL1111    -0.0266
     10 C         118.9243  155.4223  145.5756 C.3     1  UNL1111    -0.0534
     11 C         119.3547  155.0973  147.9682 C.3     1  UNL1111    -0.0534
     12 C         122.0062  155.3490  146.3010 C.3     1  UNL1111     0.0267
     13 C         117.3175  154.0467  146.9667 C.3     1  UNL1111    -0.0518
     14 C         116.0596  154.1980  146.1082 C.3     1  UNL1111    -0.0232
     15 C         121.9094  151.7911  146.8129 C.3     1  UNL1111    -0.0024
     16 C         122.5066  152.7856  144.6576 C.2     1  UNL1111     0.1520
     17 C         115.2412  152.9364  146.1314 C.3     1  UNL1111    -0.0377
     18 C         123.3626  151.5452  144.4021 C.3     1  UNL1111     0.0339
     19 C         122.7778  151.8610  147.9053 C.3     1  UNL1111    -0.0551
     20 C         121.1152  150.6558  146.6204 C.3     1  UNL1111    -0.0551
     21 C         123.8788  156.2996  147.3822 C.3     1  UNL1111    -0.0028
     22 C         124.1424  151.6376  143.0995 C.3     1  UNL1111    -0.0445
     23 C         115.2989  151.8660  145.2603 C.3     1  UNL1111    -0.0655
     24 C         122.8474  150.7989  148.8069 C.3     1  UNL1111    -0.0786
     25 C         121.1868  149.5962  147.5250 C.3     1  UNL1111    -0.0786
     26 C         122.0521  149.6685  148.6171 C.3     1  UNL1111    -0.0844
     27 C         114.3681  150.8421  145.5997 C.3     1  UNL1111    -0.0698
     28 C         113.6292  151.1666  146.7149 C.3     1  UNL1111    -0.0470
     29 H         119.3855  153.3828  145.0605 H       1  UNL1111     0.0580
     30 H         120.3414  154.5929  144.2419 H       1  UNL1111     0.0580
     31 H         121.0771  153.9521  148.4758 H       1  UNL1111     0.0580
     32 H         119.7984  153.0264  147.7216 H       1  UNL1111     0.0580
     33 H         119.4111  156.4041  145.6112 H       1  UNL1111     0.0712
     34 H         118.1268  155.4936  144.8310 H       1  UNL1111     0.0712
     35 H         118.8452  154.9276  148.9239 H       1  UNL1111     0.0712
     36 H         119.8528  156.0716  148.0288 H       1  UNL1111     0.0712
     37 H         122.5464  155.4616  145.3566 H       1  UNL1111     0.0992
     38 H         121.4496  156.2773  146.4614 H       1  UNL1111     0.0992
     39 H         117.0365  153.9367  148.0215 H       1  UNL1111     0.0723
     40 H         117.8890  153.1623  146.6731 H       1  UNL1111     0.0723
     41 H         116.3221  154.4136  145.0672 H       1  UNL1111     0.0624
     42 H         115.4591  155.0486  146.4520 H       1  UNL1111     0.0624
     43 H         122.7125  150.6664  144.3540 H       1  UNL1111     0.0735
     44 H         124.0729  151.4196  145.2256 H       1  UNL1111     0.0735
     45 H         123.4049  152.7363  148.0562 H       1  UNL1111     0.0994
     46 H         120.4368  150.5939  145.7739 H       1  UNL1111     0.0994
     47 H         124.5686  156.1503  148.2171 H       1  UNL1111     0.0816
     48 H         123.3544  157.2489  147.5270 H       1  UNL1111     0.0816
     49 H         124.4554  156.3236  146.4526 H       1  UNL1111     0.0816
     50 H         123.4675  151.7347  142.2426 H       1  UNL1111     0.0319
     51 H         124.7492  150.7384  142.9549 H       1  UNL1111     0.0319
     52 H         124.8105  152.5051  143.1020 H       1  UNL1111     0.0319
     53 H         115.9737  151.8183  144.4140 H       1  UNL1111     0.0940
     54 H         123.5232  150.8529  149.6568 H       1  UNL1111     0.0890
     55 H         120.5689  148.7135  147.3800 H       1  UNL1111     0.0890
     56 H         122.1082  148.8419  149.3215 H       1  UNL1111     0.0876
     57 H         114.2418  149.9170  145.0508 H       1  UNL1111     0.0922
     58 H         112.8527  150.5824  147.1893 H       1  UNL1111     0.1086
@<TRIPOS>UNITY_ATOM_ATTR
2 1
charge -1
5 1
charge 1
@<TRIPOS>BOND
     1     1    17   ar
     2     1    28   ar
     3     2     5    1
     4     3    12    1
     5     3    21    1
     6     4    16    2
     7     5    10    1
     8     5    11    1
     9     5    13    1
    10     6     7    1
    11     6    15    1
    12     6    16   am
    13     7     8    1
    14     7     9    1
    15     7    12    1
    16     8    10    1
    17     9    11    1
    18    13    14    1
    19    14    17    1
    20    15    19   ar
    21    15    20   ar
    22    16    18    1
    23    17    23   ar
    24    18    22    1
    25    19    24   ar
    26    20    25   ar
    27    23    27   ar
    28    24    26   ar
    29    25    26   ar
    30    27    28   ar
    31     8    29    1
    32     8    30    1
    33     9    31    1
    34     9    32    1
    35    10    33    1
    36    10    34    1
    37    11    35    1
    38    11    36    1
    39    12    37    1
    40    12    38    1
    41    13    39    1
    42    13    40    1
    43    14    41    1
    44    14    42    1
    45    18    43    1
    46    18    44    1
    47    19    45    1
    48    20    46    1
    49    21    47    1
    50    21    48    1
    51    21    49    1
    52    22    50    1
    53    22    51    1
    54    22    52    1
    55    23    53    1
    56    24    54    1
    57    25    55    1
    58    26    56    1
    59    27    57    1
    60    28    58    1
@<TRIPOS>MOLECULE
156614134
 61 63 0 0 0
SMALL
GASTEIGER

@<TRIPOS>ATOM
      1 S         126.5233  154.5424  146.3891 S.3     1  UNL111     -0.1518
      2 O         118.5433  153.6296  143.6039 O.3     1  UNL111     -0.4622
      3 O         117.3869  155.5540  147.0999 O.2     1  UNL111     -0.3818
      4 N         121.9576  152.9279  146.3123 N.4     1  UNL111      0.4273
      5 N         117.6430  153.3167  146.6147 N.am    1  UNL111     -0.2800
      6 C         119.0284  153.5104  146.0121 C.3     1  UNL111      0.0441
      7 C         119.7160  152.1560  145.6447 C.3     1  UNL111     -0.0239
      8 C         119.9458  154.1801  147.0810 C.3     1  UNL111     -0.0239
      9 C         121.1541  152.3175  145.1878 C.3     1  UNL111     -0.0348
     10 C         121.4161  154.2800  146.6963 C.3     1  UNL111     -0.0348
     11 C         118.9150  154.4194  144.7380 C.3     1  UNL111      0.0267
     12 C         123.4443  152.9660  145.9637 C.3     1  UNL111     -0.0333
     13 C         117.0781  152.0157  146.6409 C.3     1  UNL111     -0.0024
     14 C         116.9055  154.4190  147.0838 C.2     1  UNL111      0.1527
     15 C         124.3123  153.0746  147.2227 C.3     1  UNL111     -0.0205
     16 C         115.4764  154.1685  147.5644 C.3     1  UNL111      0.0357
     17 C         116.5808  151.4394  145.4688 C.3     1  UNL111     -0.0551
     18 C         117.0119  151.3146  147.8497 C.3     1  UNL111     -0.0551
     19 C         125.7683  153.0811  146.8723 C.3     1  UNL111     -0.0375
     20 C         114.7355  155.4688  147.8764 C.3     1  UNL111     -0.0412
     21 C         118.1916  154.4400  142.4856 C.3     1  UNL111     -0.0028
     22 C         116.0277  150.1592  145.5053 C.3     1  UNL111     -0.0786
     23 C         116.4582  150.0347  147.8812 C.3     1  UNL111     -0.0786
     24 C         115.9686  149.4576  146.7096 C.3     1  UNL111     -0.0844
     25 C         126.6604  152.0277  146.8841 C.3     1  UNL111     -0.0655
     26 C         113.3129  155.2016  148.3408 C.3     1  UNL111     -0.0653
     27 C         127.9702  152.4277  146.4892 C.3     1  UNL111     -0.0698
     28 C         128.0347  153.7708  146.1941 C.3     1  UNL111     -0.0470
     29 H         121.8567  152.3006  147.1235 H       1  UNL111      0.1324
     30 H         119.1739  151.6286  144.8531 H       1  UNL111      0.0582
     31 H         119.7095  151.4873  146.5163 H       1  UNL111      0.0582
     32 H         119.8670  153.6139  148.0196 H       1  UNL111      0.0582
     33 H         119.6170  155.1962  147.3150 H       1  UNL111      0.0582
     34 H         121.5888  151.3345  144.9765 H       1  UNL111      0.0745
     35 H         121.2635  152.9553  144.3051 H       1  UNL111      0.0745
     36 H         121.5849  154.9605  145.8560 H       1  UNL111      0.0745
     37 H         121.9925  154.6369  147.5545 H       1  UNL111      0.0745
     38 H         118.1883  155.2254  144.8731 H       1  UNL111      0.0992
     39 H         119.8743  154.8885  144.5000 H       1  UNL111      0.0992
     40 H         123.5959  153.7994  145.2685 H       1  UNL111      0.0756
     41 H         123.6741  152.0309  145.4392 H       1  UNL111      0.0756
     42 H         124.1029  152.2257  147.8860 H       1  UNL111      0.0626
     43 H         124.0691  153.9779  147.7930 H       1  UNL111      0.0626
     44 H         115.5144  153.5559  148.4710 H       1  UNL111      0.0746
     45 H         114.9277  153.6229  146.7891 H       1  UNL111      0.0746
     46 H         116.6058  151.9835  144.5279 H       1  UNL111      0.0994
     47 H         117.3839  151.7567  148.7701 H       1  UNL111      0.0994
     48 H         114.7116  156.1080  146.9857 H       1  UNL111      0.0369
     49 H         115.2695  156.0273  148.6544 H       1  UNL111      0.0369
     50 H         117.9520  153.7811  141.6469 H       1  UNL111      0.0816
     51 H         119.0303  155.0823  142.2008 H       1  UNL111      0.0816
     52 H         117.3106  155.0462  142.7168 H       1  UNL111      0.0816
     53 H         115.6316  149.7110  144.5967 H       1  UNL111      0.0890
     54 H         116.3975  149.4881  148.8197 H       1  UNL111      0.0890
     55 H         115.5282  148.4629  146.7368 H       1  UNL111      0.0876
     56 H         126.4024  151.0140  147.1690 H       1  UNL111      0.0940
     57 H         112.7408  154.6756  147.5699 H       1  UNL111      0.0262
     58 H         112.8020  156.1446  148.5589 H       1  UNL111      0.0262
     59 H         113.3052  154.5927  149.2504 H       1  UNL111      0.0262
     60 H         128.8273  151.7661  146.4322 H       1  UNL111      0.0922
     61 H         128.9012  154.3374  145.8783 H       1  UNL111      0.1086
@<TRIPOS>UNITY_ATOM_ATTR
4 1
charge 1
@<TRIPOS>BOND
     1     1    19   ar
     2     1    28   ar
     3     2    11    1
     4     2    21    1
     5     3    14    2
     6     4     9    1
     7     4    10    1
     8     4    12    1
     9     5     6    1
    10     5    13    1
    11     5    14   am
    12     6     7    1
    13     6     8    1
    14     6    11    1
    15     7     9    1
    16     8    10    1
    17    12    15    1
    18    13    17   ar
    19    13    18   ar
    20    14    16    1
    21    15    19    1
    22    16    20    1
    23    17    22   ar
    24    18    23   ar
    25    19    25   ar
    26    20    26    1
    27    22    24   ar
    28    23    24   ar
    29    25    27   ar
    30    27    28   ar
    31     4    29    1
    32     7    30    1
    33     7    31    1
    34     8    32    1
    35     8    33    1
    36     9    34    1
    37     9    35    1
    38    10    36    1
    39    10    37    1
    40    11    38    1
    41    11    39    1
    42    12    40    1
    43    12    41    1
    44    15    42    1
    45    15    43    1
    46    16    44    1
    47    16    45    1
    48    17    46    1
    49    18    47    1
    50    20    48    1
    51    20    49    1
    52    21    50    1
    53    21    51    1
    54    21    52    1
    55    22    53    1
    56    23    54    1
    57    24    55    1
    58    25    56    1
    59    26    57    1
    60    26    58    1
    61    26    59    1
    62    27    60    1
    63    28    61    1
@<TRIPOS>MOLECULE
162172
 45 46 0 0 0
SMALL
GASTEIGER

@<TRIPOS>ATOM
      1 O         121.3314  152.8318  148.6823 O.3     1  UNL111     -0.4622
      2 O         120.0723  150.4839  145.4242 O.2     1  UNL111     -0.3820
      3 N         119.5571  152.6464  146.0262 N.am    1  UNL111     -0.2802
      4 N         123.2979  154.6777  145.3084 N.4     1  UNL111      0.4319
      5 C         121.0144  153.0280  146.2486 C.3     1  UNL111      0.0439
      6 C         121.8146  152.7394  144.9351 C.3     1  UNL111     -0.0239
      7 C         121.1922  154.5583  146.5346 C.3     1  UNL111     -0.0239
      8 C         123.2524  153.2396  144.9405 C.3     1  UNL111     -0.0315
      9 C         122.6452  154.9848  146.6111 C.3     1  UNL111     -0.0315
     10 C         121.5946  152.1802  147.4358 C.3     1  UNL111      0.0267
     11 C         118.5443  153.6014  146.3009 C.3     1  UNL111     -0.0024
     12 C         119.2097  151.3337  145.6583 C.2     1  UNL111      0.1520
     13 C         117.7253  150.9848  145.5718 C.3     1  UNL111      0.0339
     14 C         118.2158  153.9216  147.6213 C.3     1  UNL111     -0.0551
     15 C         117.8657  154.2138  145.2420 C.3     1  UNL111     -0.0551
     16 C         121.6257  151.9887  149.7934 C.3     1  UNL111     -0.0028
     17 C         117.4944  149.5017  145.3269 C.3     1  UNL111     -0.0445
     18 C         117.2174  154.8608  147.8805 C.3     1  UNL111     -0.0786
     19 C         116.8681  155.1525  145.5061 C.3     1  UNL111     -0.0786
     20 C         116.5462  155.4764  146.8240 C.3     1  UNL111     -0.0844
     21 H         122.8619  155.2414  144.5636 H       1  UNL111      0.1346
     22 H         124.2794  154.9888  145.3425 H       1  UNL111      0.1346
     23 H         121.2844  153.2025  144.0912 H       1  UNL111      0.0581
     24 H         121.8588  151.6700  144.7133 H       1  UNL111      0.0581
     25 H         120.7080  154.8567  147.4699 H       1  UNL111      0.0581
     26 H         120.7056  155.1406  145.7399 H       1  UNL111      0.0581
     27 H         123.8879  152.7003  145.6487 H       1  UNL111      0.0741
     28 H         123.6997  153.1552  143.9449 H       1  UNL111      0.0741
     29 H         122.7325  156.0658  146.7570 H       1  UNL111      0.0741
     30 H         123.2104  154.4752  147.3969 H       1  UNL111      0.0741
     31 H         121.1753  151.1701  147.4593 H       1  UNL111      0.0992
     32 H         122.6806  152.0767  147.3537 H       1  UNL111      0.0992
     33 H         117.2756  151.5475  144.7481 H       1  UNL111      0.0735
     34 H         117.2306  151.2641  146.5075 H       1  UNL111      0.0735
     35 H         118.7191  153.4359  148.4535 H       1  UNL111      0.0994
     36 H         118.1028  153.9649  144.2111 H       1  UNL111      0.0994
     37 H         121.4372  152.5527  150.7106 H       1  UNL111      0.0816
     38 H         122.6772  151.6867  149.7752 H       1  UNL111      0.0816
     39 H         120.9773  151.1075  149.7849 H       1  UNL111      0.0816
     40 H         117.9471  149.1831  144.3821 H       1  UNL111      0.0319
     41 H         116.4225  149.2860  145.2812 H       1  UNL111      0.0319
     42 H         117.9312  148.8985  146.1297 H       1  UNL111      0.0319
     43 H         116.9533  155.1060  148.9069 H       1  UNL111      0.0890
     44 H         116.3323  155.6263  144.6865 H       1  UNL111      0.0890
     45 H         115.7614  156.2018  147.0291 H       1  UNL111      0.0876
@<TRIPOS>UNITY_ATOM_ATTR
4 1
charge 1
@<TRIPOS>BOND
     1     1    10    1
     2     1    16    1
     3     2    12    2
     4     3     5    1
     5     3    11    1
     6     3    12   am
     7     4     8    1
     8     4     9    1
     9     5     6    1
    10     5     7    1
    11     5    10    1
    12     6     8    1
    13     7     9    1
    14    11    14   ar
    15    11    15   ar
    16    12    13    1
    17    13    17    1
    18    14    18   ar
    19    15    19   ar
    20    18    20   ar
    21    19    20   ar
    22     4    21    1
    23     4    22    1
    24     6    23    1
    25     6    24    1
    26     7    25    1
    27     7    26    1
    28     8    27    1
    29     8    28    1
    30     9    29    1
    31     9    30    1
    32    10    31    1
    33    10    32    1
    34    13    33    1
    35    13    34    1
    36    14    35    1
    37    15    36    1
    38    16    37    1
    39    16    38    1
    40    16    39    1
    41    17    40    1
    42    17    41    1
    43    17    42    1
    44    18    43    1
    45    19    44    1
    46    20    45    1
@<TRIPOS>MOLECULE
21120849
 55 57 0 0 0
SMALL
GASTEIGER

@<TRIPOS>ATOM
      1 S         113.4555  151.7990  146.4923 S.3     1  UNL111     -0.1518
      2 O         121.4442  152.3189  149.2972 O.3     1  UNL111     -0.4505
      3 O         122.5357  150.3653  145.8140 O.2     1  UNL111     -0.3820
      4 N         118.0902  153.2099  146.5944 N.4     1  UNL111      0.4273
      5 N         122.3820  152.6155  146.2813 N.am    1  UNL111     -0.2803
      6 C         120.9885  152.4883  146.8808 C.3     1  UNL111      0.0433
      7 C         120.3674  153.8706  147.2611 C.3     1  UNL111     -0.0241
      8 C         120.0404  151.8730  145.8067 C.3     1  UNL111     -0.0241
      9 C         118.9249  153.7718  147.7219 C.3     1  UNL111     -0.0348
     10 C         118.5676  151.8381  146.1943 C.3     1  UNL111     -0.0348
     11 C         121.0553  151.5681  148.1488 C.3     1  UNL111      0.0260
     12 C         116.6049  153.2357  146.9497 C.3     1  UNL111     -0.0333
     13 C         122.9925  153.8943  146.2176 C.3     1  UNL111     -0.0025
     14 C         123.0677  151.4780  145.8187 C.2     1  UNL111      0.1520
     15 C         115.7279  153.1899  145.6933 C.3     1  UNL111     -0.0205
     16 C         124.5052  151.6592  145.3355 C.3     1  UNL111      0.0339
     17 C         123.0855  154.5572  144.9891 C.3     1  UNL111     -0.0551
     18 C         123.5067  154.4875  147.3738 C.3     1  UNL111     -0.0551
     19 C         114.2747  153.2390  146.0518 C.3     1  UNL111     -0.0375
     20 C         125.1919  150.3310  145.0575 C.3     1  UNL111     -0.0445
     21 C         123.6832  155.8158  144.9218 C.3     1  UNL111     -0.0786
     22 C         124.1040  155.7463  147.3018 C.3     1  UNL111     -0.0786
     23 C         113.4324  154.3323  146.0803 C.3     1  UNL111     -0.0655
     24 C         124.1900  156.4096  146.0776 C.3     1  UNL111     -0.0844
     25 C         112.1075  153.9804  146.4710 C.3     1  UNL111     -0.0698
     26 C         111.9824  152.6327  146.7224 C.3     1  UNL111     -0.0470
     27 H         121.8126  151.6866  149.9442 H       1  UNL111      0.2354
     28 H         118.2167  153.8405  145.7895 H       1  UNL111      0.1324
     29 H         120.4022  154.5462  146.3955 H       1  UNL111      0.0582
     30 H         120.9361  154.3642  148.0558 H       1  UNL111      0.0582
     31 H         120.3228  150.8458  145.5606 H       1  UNL111      0.0582
     32 H         120.1435  152.4452  144.8741 H       1  UNL111      0.0582
     33 H         118.7877  153.1319  148.5991 H       1  UNL111      0.0745
     34 H         118.5371  154.7721  147.9433 H       1  UNL111      0.0745
     35 H         117.9728  151.5179  145.3340 H       1  UNL111      0.0745
     36 H         118.3692  151.1570  147.0277 H       1  UNL111      0.0745
     37 H         120.0825  151.1297  148.3842 H       1  UNL111      0.0978
     38 H         121.7586  150.7399  148.0350 H       1  UNL111      0.0978
     39 H         116.4211  154.1712  147.4914 H       1  UNL111      0.0756
     40 H         116.4168  152.3984  147.6314 H       1  UNL111      0.0756
     41 H         115.9301  152.2891  145.1035 H       1  UNL111      0.0626
     42 H         115.9706  154.0426  145.0463 H       1  UNL111      0.0626
     43 H         125.0803  152.1962  146.0966 H       1  UNL111      0.0735
     44 H         124.4984  152.2468  144.4125 H       1  UNL111      0.0735
     45 H         122.6996  154.1022  144.0807 H       1  UNL111      0.0994
     46 H         123.4592  153.9727  148.3303 H       1  UNL111      0.0994
     47 H         125.2178  149.7067  145.9568 H       1  UNL111      0.0319
     48 H         126.2215  150.4971  144.7261 H       1  UNL111      0.0319
     49 H         124.6678  149.7724  144.2749 H       1  UNL111      0.0319
     50 H         123.7645  156.3322  143.9680 H       1  UNL111      0.0890
     51 H         124.5130  156.2074  148.1981 H       1  UNL111      0.0890
     52 H         113.7356  155.3419  145.8273 H       1  UNL111      0.0940
     53 H         124.6645  157.3874  146.0227 H       1  UNL111      0.0876
     54 H         111.2824  154.6786  146.5556 H       1  UNL111      0.0922
     55 H         111.0923  152.0965  147.0255 H       1  UNL111      0.1086
@<TRIPOS>UNITY_ATOM_ATTR
4 1
charge 1
@<TRIPOS>BOND
     1     1    19   ar
     2     1    26   ar
     3     2    11    1
     4     3    14    2
     5     4     9    1
     6     4    10    1
     7     4    12    1
     8     5     6    1
     9     5    13    1
    10     5    14   am
    11     6     7    1
    12     6     8    1
    13     6    11    1
    14     7     9    1
    15     8    10    1
    16    12    15    1
    17    13    17   ar
    18    13    18   ar
    19    14    16    1
    20    15    19    1
    21    16    20    1
    22    17    21   ar
    23    18    22   ar
    24    19    23   ar
    25    21    24   ar
    26    22    24   ar
    27    23    25   ar
    28    25    26   ar
    29     2    27    1
    30     4    28    1
    31     7    29    1
    32     7    30    1
    33     8    31    1
    34     8    32    1
    35     9    33    1
    36     9    34    1
    37    10    35    1
    38    10    36    1
    39    11    37    1
    40    11    38    1
    41    12    39    1
    42    12    40    1
    43    15    41    1
    44    15    42    1
    45    16    43    1
    46    16    44    1
    47    17    45    1
    48    18    46    1
    49    20    47    1
    50    20    48    1
    51    20    49    1
    52    21    50    1
    53    22    51    1
    54    23    52    1
    55    24    53    1
    56    25    54    1
    57    26    55    1
