@<TRIPOS>MOLECULE
5324289
 45 49 0 0 0
SMALL
GASTEIGER

@<TRIPOS>ATOM
      1 O         118.6706  154.4560  145.6519 O.3     1  UNL111     -0.5313
      2 O         119.8204  156.8658  147.0107 O.2     1  UNL111     -0.5764
      3 O         116.0916  153.3646  145.8948 O.3     1  UNL111     -0.5683
      4 N         122.8275  151.1644  145.9936 N.4     1  UNL111      0.4294
      5 C         120.7724  153.2580  145.9922 C.3     1  UNL111      0.0761
      6 C         121.7104  153.0509  147.1524 C.2     1  UNL111     -0.0492
      7 C         122.1026  151.6003  147.2672 C.3     1  UNL111     -0.0050
      8 C         120.1079  154.6542  145.8144 C.3     1  UNL111      0.1261
      9 C         121.4480  152.8075  144.6818 C.3     1  UNL111     -0.0195
     10 C         119.5631  152.4516  146.3040 C.ar    1  UNL111      0.0315
     11 C         120.8485  150.6770  147.5089 C.3     1  UNL111     -0.0165
     12 C         122.0135  151.3926  144.7410 C.3     1  UNL111     -0.0339
     13 C         119.5539  151.2144  146.9347 C.ar    1  UNL111     -0.0395
     14 C         118.4151  153.1628  146.0335 C.ar    1  UNL111      0.1111
     15 C         120.4353  155.6243  146.9434 C.2     1  UNL111      0.0616
     16 C         121.9867  154.0383  148.0162 C.2     1  UNL111     -0.0564
     17 C         121.3221  155.3183  147.9073 C.2     1  UNL111     -0.0212
     18 C         118.3096  150.6211  147.1390 C.ar    1  UNL111     -0.0566
     19 C         124.2207  151.7327  145.8990 C.3     1  UNL111     -0.0431
     20 C         117.1673  152.5975  146.2295 C.ar    1  UNL111      0.0935
     21 C         117.1272  151.2995  146.7639 C.ar    1  UNL111     -0.0128
     22 C         119.4242  157.4583  145.7785 C.3     1  UNL111      0.0306
     23 C         114.8028  152.8391  146.1843 C.3     1  UNL111      0.0331
     24 H         122.9597  150.1477  146.0689 H       1  UNL111      0.1349
     25 H         122.8149  151.4295  148.0833 H       1  UNL111      0.0950
     26 H         120.4608  155.1106  144.8805 H       1  UNL111      0.1600
     27 H         122.2611  153.5045  144.4378 H       1  UNL111      0.0565
     28 H         120.7406  152.8586  143.8434 H       1  UNL111      0.0565
     29 H         120.7061  150.6026  148.5954 H       1  UNL111      0.0634
     30 H         121.0303  149.6632  147.1339 H       1  UNL111      0.0634
     31 H         121.2202  150.6380  144.7331 H       1  UNL111      0.0744
     32 H         122.6606  151.1869  143.8812 H       1  UNL111      0.0744
     33 H         122.6107  153.8854  148.8938 H       1  UNL111      0.0949
     34 H         121.5180  156.0433  148.6960 H       1  UNL111      0.1116
     35 H         118.2255  149.6528  147.6293 H       1  UNL111      0.0940
     36 H         124.1643  152.8185  145.7937 H       1  UNL111      0.0670
     37 H         124.7078  151.2838  145.0292 H       1  UNL111      0.0670
     38 H         124.7623  151.4549  146.8070 H       1  UNL111      0.0670
     39 H         116.1801  150.7995  146.9494 H       1  UNL111      0.1142
     40 H         119.1389  158.4946  145.9828 H       1  UNL111      0.1069
     41 H         118.5527  156.9511  145.3570 H       1  UNL111      0.1069
     42 H         120.2527  157.4722  145.0630 H       1  UNL111      0.1069
     43 H         114.0618  153.5893  145.8918 H       1  UNL111      0.1074
     44 H         114.6834  152.6524  147.2567 H       1  UNL111      0.1074
     45 H         114.6081  151.9329  145.6015 H       1  UNL111      0.1074
@<TRIPOS>UNITY_ATOM_ATTR
4 1
charge 1
@<TRIPOS>BOND
     1     1     8    1
     2     1    14    1
     3     2    15    1
     4     2    22    1
     5     3    20    1
     6     3    23    1
     7     4     7    1
     8     4    12    1
     9     4    19    1
    10     5     6    1
    11     5     8    1
    12     5     9    1
    13     5    10    1
    14     6     7    1
    15     6    16    2
    16     7    11    1
    17     8    15    1
    18     9    12    1
    19    10    13   ar
    20    10    14   ar
    21    11    13    1
    22    13    18   ar
    23    14    20   ar
    24    15    17    2
    25    16    17    1
    26    18    21   ar
    27    20    21   ar
    28     4    24    1
    29     7    25    1
    30     8    26    1
    31     9    27    1
    32     9    28    1
    33    11    29    1
    34    11    30    1
    35    12    31    1
    36    12    32    1
    37    16    33    1
    38    17    34    1
    39    18    35    1
    40    19    36    1
    41    19    37    1
    42    19    38    1
    43    21    39    1
    44    22    40    1
    45    22    41    1
    46    22    42    1
    47    23    43    1
    48    23    44    1
    49    23    45    1
@<TRIPOS>MOLECULE
131706816
 27 31 0 0 0
SMALL
GASTEIGER

@<TRIPOS>ATOM
      1 O         121.5672  152.0968  145.8046 O.2     1  UNL111     -0.5063
      2 O         121.1188  149.4718  146.8011 O.2     1  UNL111     -0.4966
      3 O         123.7362  153.9412  146.2931 O.2     1  UNL111     -0.4913
      4 N         116.3090  153.9044  146.1155 N.4     1  UNL111      0.4440
      5 C         119.2138  152.6571  145.8873 C.3     1  UNL111      0.1278
      6 C         118.1723  152.5754  147.0847 C.2     1  UNL111      0.0001
      7 C         117.3541  153.8321  147.1718 C.3     1  UNL111      0.0555
      8 C         120.2598  151.5434  145.7794 C.3     1  UNL111      0.2018
      9 C         118.3577  152.8641  144.7084 C.3     1  UNL111      0.0819
     10 C         120.1181  153.8211  146.1703 C.2     1  UNL111      0.0529
     11 C         118.3297  154.9155  147.1764 C.3     1  UNL111      0.0708
     12 C         116.9768  153.4845  144.8627 C.3     1  UNL111      0.0486
     13 C         119.6989  155.0143  146.7611 C.2     1  UNL111      0.0077
     14 C         121.4466  153.4510  146.0661 C.2     1  UNL111      0.1274
     15 C         120.0369  150.2702  146.5007 C.2     1  UNL111      0.1246
     16 C         118.0891  151.4497  147.7201 C.2     1  UNL111      0.0187
     17 C         119.0651  150.3405  147.3697 C.2     1  UNL111      0.0632
     18 C         120.6599  155.9299  147.1376 C.2     1  UNL111      0.0164
     19 C         115.6367  155.2346  146.0406 C.3     1  UNL111     -0.0309
     20 C         122.4349  154.3501  146.4100 C.2     1  UNL111      0.1343
     21 C         122.0169  155.6065  146.9105 C.2     1  UNL111      0.0680
     22 C         121.4339  148.6880  145.6804 C.3     1  UNL111      0.2576
     23 C         124.6913  154.9020  146.6459 C.3     1  UNL111      0.2602
     24 H         115.5879  153.1974  146.3252 H       1  UNL111      0.1548
     25 H         116.3470  155.9966  145.7054 H       1  UNL111      0.0696
     26 H         115.2333  155.4751  147.0288 H       1  UNL111      0.0696
     27 H         114.8153  155.1498  145.3227 H       1  UNL111      0.0696
@<TRIPOS>UNITY_ATOM_ATTR
4 1
charge 1
@<TRIPOS>BOND
     1     1     8    1
     2     1    14    1
     3     2    15    1
     4     2    22    1
     5     3    20    1
     6     3    23    1
     7     4     7    1
     8     4    12    1
     9     4    19    1
    10     5     6    1
    11     5     8    1
    12     5     9    1
    13     5    10    1
    14     6     7    1
    15     6    16    2
    16     7    11    1
    17     8    15    1
    18     9    12    1
    19    10    13    2
    20    10    14    1
    21    11    13    1
    22    13    18    1
    23    14    20    2
    24    15    17    2
    25    16    17    1
    26    18    21    2
    27    20    21    1
    28     4    24    1
    29    19    25    1
    30    19    26    1
    31    19    27    1
@<TRIPOS>MOLECULE
15450568
 45 49 0 0 0
SMALL
GASTEIGER

@<TRIPOS>ATOM
      1 O         117.9185  152.7175  147.3049 O.2     1  UNL1111    -0.5313
      2 O         124.2022  154.3127  146.4252 O.co2   1  UNL1111    -0.7548
      3 O         117.7656  149.8575  146.5854 O.2     1  UNL1111    -0.5764
      4 O         116.2344  155.1683  146.7838 O.2     1  UNL1111    -0.5683
      5 N         123.2445  153.3483  146.6601 N.3     1  UNL1111     0.4044
      6 C         120.3421  152.6608  146.9085 C.3     1  UNL1111     0.0757
      7 C         122.2761  153.2571  145.4674 C.3     1  UNL1111    -0.0234
      8 C         121.1832  152.2312  145.7334 C.2     1  UNL1111    -0.0522
      9 C         121.2319  152.8430  148.1573 C.3     1  UNL1111    -0.0223
     10 C         119.0782  151.8252  147.2491 C.3     1  UNL1111     0.1260
     11 C         119.6807  153.9210  146.4821 C.3     1  UNL1111     0.0315
     12 C         122.4711  153.7074  147.9172 C.3     1  UNL1111    -0.0524
     13 C         121.6515  154.6633  145.1237 C.3     1  UNL1111    -0.0193
     14 C         120.2831  154.9217  145.7288 C.3     1  UNL1111    -0.0397
     15 C         118.3358  153.9152  146.7855 C.3     1  UNL1111     0.1111
     16 C         120.8837  151.1477  145.0045 C.2     1  UNL1111    -0.0566
     17 C         118.8433  150.6735  146.2852 C.2     1  UNL1111     0.0616
     18 C         123.9768  152.0442  146.8467 C.3     1  UNL1111    -0.0616
     19 C         119.7103  150.3555  145.3065 C.2     1  UNL1111    -0.0212
     20 C         119.5236  156.0575  145.4569 C.3     1  UNL1111    -0.0566
     21 C         117.5610  155.0237  146.4961 C.3     1  UNL1111     0.0935
     22 C         118.1808  156.1196  145.8754 C.3     1  UNL1111    -0.0128
     23 C         116.6976  150.0571  145.6608 C.3     1  UNL1111     0.0306
     24 C         115.4437  154.0516  146.3877 C.3     1  UNL1111     0.0331
     25 H         122.9176  152.9525  144.6304 H       1  UNL1111     0.0917
     26 H         121.5562  151.8554  148.5107 H       1  UNL1111     0.0563
     27 H         120.6572  153.2878  148.9804 H       1  UNL1111     0.0563
     28 H         119.1682  151.3883  148.2529 H       1  UNL1111     0.1600
     29 H         122.2052  154.7661  147.8216 H       1  UNL1111     0.0711
     30 H         123.1784  153.6251  148.7507 H       1  UNL1111     0.0711
     31 H         121.5216  154.6985  144.0335 H       1  UNL1111     0.0632
     32 H         122.3218  155.4849  145.3961 H       1  UNL1111     0.0632
     33 H         121.4685  150.8674  144.1318 H       1  UNL1111     0.0949
     34 H         124.5130  151.8334  145.9170 H       1  UNL1111     0.0637
     35 H         123.2669  151.2500  147.0797 H       1  UNL1111     0.0637
     36 H         124.6861  152.1826  147.6678 H       1  UNL1111     0.0637
     37 H         119.5382  149.4766  144.6901 H       1  UNL1111     0.1116
     38 H         119.9476  156.8852  144.8931 H       1  UNL1111     0.0940
     39 H         117.5940  157.0092  145.6571 H       1  UNL1111     0.1142
     40 H         115.8340  149.4877  146.0167 H       1  UNL1111     0.1069
     41 H         116.9668  149.6816  144.6680 H       1  UNL1111     0.1069
     42 H         116.4109  151.1119  145.6023 H       1  UNL1111     0.1069
     43 H         114.4036  154.3878  146.3304 H       1  UNL1111     0.1074
     44 H         115.4898  153.2517  147.1315 H       1  UNL1111     0.1074
     45 H         115.7272  153.6839  145.3946 H       1  UNL1111     0.1074
@<TRIPOS>UNITY_ATOM_ATTR
2 1
charge -1
5 1
charge 1
@<TRIPOS>BOND
     1     1    10    1
     2     1    15    1
     3     2     5    1
     4     3    17    1
     5     3    23    1
     6     4    21    1
     7     4    24    1
     8     5     7    1
     9     5    12    1
    10     5    18    1
    11     6     8    1
    12     6     9    1
    13     6    10    1
    14     6    11    1
    15     7     8    1
    16     7    13    1
    17     8    16    2
    18     9    12    1
    19    10    17    1
    20    11    14   ar
    21    11    15   ar
    22    13    14    1
    23    14    20   ar
    24    15    21   ar
    25    16    19    1
    26    17    19    2
    27    20    22   ar
    28    21    22   ar
    29     7    25    1
    30     9    26    1
    31     9    27    1
    32    10    28    1
    33    12    29    1
    34    12    30    1
    35    13    31    1
    36    13    32    1
    37    16    33    1
    38    18    34    1
    39    18    35    1
    40    18    36    1
    41    19    37    1
    42    20    38    1
    43    22    39    1
    44    23    40    1
    45    23    41    1
    46    23    42    1
    47    24    43    1
    48    24    44    1
    49    24    45    1
@<TRIPOS>MOLECULE
5321926
 45 49 0 0 0
SMALL
GASTEIGER

@<TRIPOS>ATOM
      1 O         121.0517  151.7448  145.6880 O.3     1  UNL111     -0.5313
      2 O         118.9766  149.4108  145.6499 O.2     1  UNL111     -0.5764
      3 O         123.9129  153.0111  145.8820 O.3     1  UNL111     -0.5683
      4 N         117.3042  155.2311  145.6850 N.4     1  UNL111      0.4294
      5 C         119.1288  153.0344  146.0953 C.3     1  UNL111      0.0761
      6 C         117.9617  153.3081  146.9734 C.2     1  UNL111     -0.0492
      7 C         117.7684  154.7967  147.0901 C.3     1  UNL111     -0.0050
      8 C         119.7881  151.6883  146.3946 C.3     1  UNL111      0.1261
      9 C         118.6888  153.3694  144.6563 C.3     1  UNL111     -0.0195
     10 C         120.3457  153.7999  146.4133 C.ar    1  UNL111      0.0315
     11 C         119.0654  155.5804  147.5536 C.3     1  UNL111     -0.0165
     12 C         118.2451  154.8390  144.5501 C.3     1  UNL111     -0.0339
     13 C         120.3714  155.0355  147.0202 C.ar    1  UNL111     -0.0395
     14 C         121.4582  153.0338  146.0562 C.ar    1  UNL111      0.1111
     15 C         118.7320  150.6244  146.2472 C.2     1  UNL111      0.0616
     16 C         117.1987  152.2518  147.3272 C.2     1  UNL111     -0.0564
     17 C         117.5105  150.9227  146.7561 C.2     1  UNL111     -0.0212
     18 C         121.6345  155.5863  147.1842 C.ar    1  UNL111     -0.0566
     19 C         116.8679  156.6637  145.5913 C.3     1  UNL111     -0.0431
     20 C         122.7137  153.5753  146.1869 C.ar    1  UNL111      0.0935
     21 C         122.7833  154.8713  146.7473 C.ar    1  UNL111     -0.0128
     22 C         120.2472  148.8374  145.9476 C.3     1  UNL111      0.0306
     23 C         123.8850  151.7161  145.2938 C.3     1  UNL111      0.0331
     24 H         116.4500  154.6800  145.5244 H       1  UNL111      0.1349
     25 H         116.9344  155.0343  147.7604 H       1  UNL111      0.0950
     26 H         120.0737  151.5944  147.4629 H       1  UNL111      0.1600
     27 H         117.8532  152.7264  144.3494 H       1  UNL111      0.0565
     28 H         119.4900  153.1902  143.9281 H       1  UNL111      0.0565
     29 H         119.1157  155.4988  148.6477 H       1  UNL111      0.0634
     30 H         118.9870  156.6453  147.3163 H       1  UNL111      0.0634
     31 H         119.0947  155.5290  144.5735 H       1  UNL111      0.0744
     32 H         117.6973  155.0010  143.6152 H       1  UNL111      0.0744
     33 H         116.2779  152.3486  147.8964 H       1  UNL111      0.0949
     34 H         116.7074  150.1899  146.7168 H       1  UNL111      0.1116
     35 H         121.7703  156.5524  147.6666 H       1  UNL111      0.0940
     36 H         117.7479  157.3098  145.6141 H       1  UNL111      0.0670
     37 H         116.1988  156.8743  146.4292 H       1  UNL111      0.0670
     38 H         116.3308  156.7870  144.6470 H       1  UNL111      0.0670
     39 H         123.7655  155.3244  146.8877 H       1  UNL111      0.1142
     40 H         120.1911  147.7672  145.7269 H       1  UNL111      0.1069
     41 H         120.5071  148.9526  147.0054 H       1  UNL111      0.1069
     42 H         121.0214  149.2684  145.3072 H       1  UNL111      0.1069
     43 H         124.9166  151.4354  145.0599 H       1  UNL111      0.1074
     44 H         123.3224  151.7171  144.3544 H       1  UNL111      0.1074
     45 H         123.4930  150.9739  145.9965 H       1  UNL111      0.1074
@<TRIPOS>UNITY_ATOM_ATTR
4 1
charge 1
@<TRIPOS>BOND
     1     1     8    1
     2     1    14    1
     3     2    15    1
     4     2    22    1
     5     3    20    1
     6     3    23    1
     7     4     7    1
     8     4    12    1
     9     4    19    1
    10     5     6    1
    11     5     8    1
    12     5     9    1
    13     5    10    1
    14     6     7    1
    15     6    16    2
    16     7    11    1
    17     8    15    1
    18     9    12    1
    19    10    13   ar
    20    10    14   ar
    21    11    13    1
    22    13    18   ar
    23    14    20   ar
    24    15    17    2
    25    16    17    1
    26    18    21   ar
    27    20    21   ar
    28     4    24    1
    29     7    25    1
    30     8    26    1
    31     9    27    1
    32     9    28    1
    33    11    29    1
    34    11    30    1
    35    12    31    1
    36    12    32    1
    37    16    33    1
    38    17    34    1
    39    18    35    1
    40    19    36    1
    41    19    37    1
    42    19    38    1
    43    21    39    1
    44    22    40    1
    45    22    41    1
    46    22    42    1
    47    23    43    1
    48    23    44    1
    49    23    45    1
@<TRIPOS>MOLECULE
71752499
 27 31 0 0 0
SMALL
GASTEIGER

@<TRIPOS>ATOM
      1 O         121.3184  154.4043  146.9988 O.2     1  UNL111     -0.5063
      2 O         120.4019  156.7512  145.6960 O.2     1  UNL111     -0.4966
      3 O         123.8602  153.0549  146.7844 O.2     1  UNL111     -0.4913
      4 N         116.6649  151.3742  146.6828 N.4     1  UNL111      0.4440
      5 C         119.1499  153.3354  146.8711 C.3     1  UNL111      0.1278
      6 C         118.1860  153.0742  145.6406 C.2     1  UNL111      0.0001
      7 C         117.6796  151.6608  145.6370 C.3     1  UNL111      0.0555
      8 C         119.9246  154.6578  146.9034 C.3     1  UNL111      0.2018
      9 C         118.2911  153.0547  148.0314 C.3     1  UNL111      0.0819
     10 C         120.3009  152.3777  146.7395 C.2     1  UNL111      0.0529
     11 C         118.8648  150.8252  145.7617 C.3     1  UNL111      0.0708
     12 C         117.1057  152.1118  147.8881 C.3     1  UNL111      0.0486
     13 C         120.1919  151.0758  146.2449 C.2     1  UNL111      0.0077
     14 C         121.5090  153.0396  146.8657 C.2     1  UNL111      0.1274
     15 C         119.4926  155.7704  146.0270 C.2     1  UNL111      0.1246
     16 C         117.9362  154.0757  144.8578 C.2     1  UNL111      0.0187
     17 C         118.6310  155.3992  145.1194 C.2     1  UNL111      0.0632
     18 C         121.3516  150.3681  146.0020 C.2     1  UNL111      0.0164
     19 C         115.2954  151.7348  146.2135 C.3     1  UNL111     -0.0309
     20 C         122.6895  152.3577  146.6512 C.2     1  UNL111      0.1343
     21 C         122.5881  151.0025  146.2566 C.2     1  UNL111      0.0680
     22 C         120.4207  157.7156  146.7156 C.3     1  UNL111      0.2576
     23 C         125.0210  152.3159  146.5270 C.3     1  UNL111      0.2602
     24 H         116.6804  150.3686  146.9121 H       1  UNL111      0.1548
     25 H         115.2437  152.8088  146.0090 H       1  UNL111      0.0696
     26 H         114.5892  151.4648  147.0042 H       1  UNL111      0.0696
     27 H         115.0762  151.1538  145.3127 H       1  UNL111      0.0696
@<TRIPOS>UNITY_ATOM_ATTR
4 1
charge 1
@<TRIPOS>BOND
     1     1     8    1
     2     1    14    1
     3     2    15    1
     4     2    22    1
     5     3    20    1
     6     3    23    1
     7     4     7    1
     8     4    12    1
     9     4    19    1
    10     5     6    1
    11     5     8    1
    12     5     9    1
    13     5    10    1
    14     6     7    1
    15     6    16    2
    16     7    11    1
    17     8    15    1
    18     9    12    1
    19    10    13    2
    20    10    14    1
    21    11    13    1
    22    13    18    1
    23    14    20    2
    24    15    17    2
    25    16    17    1
    26    18    21    2
    27    20    21    1
    28     4    24    1
    29    19    25    1
    30    19    26    1
    31    19    27    1
@<TRIPOS>MOLECULE
71752500
 27 31 0 0 0
SMALL
GASTEIGER

@<TRIPOS>ATOM
      1 O         121.2806  154.2790  147.2804 O.2     1  UNL111     -0.5066
      2 O         120.3925  156.6322  146.2091 O.2     1  UNL111     -0.5691
      3 O         123.8313  153.0465  146.7293 O.2     1  UNL111     -0.4913
      4 N         116.6691  151.2040  146.7110 N.4     1  UNL111      0.4600
      5 C         119.1281  153.1995  147.0639 C.3     1  UNL111      0.1280
      6 C         118.0951  153.1003  145.8670 C.2     1  UNL111      0.0026
      7 C         117.6146  151.6856  145.6707 C.3     1  UNL111      0.0701
      8 C         119.8804  154.5191  147.2599 C.3     1  UNL111      0.1994
      9 C         118.3488  152.7115  148.2151 C.3     1  UNL111      0.0849
     10 C         120.2851  152.3021  146.7249 C.2     1  UNL111      0.0529
     11 C         118.8279  150.8796  145.5923 C.3     1  UNL111      0.0735
     12 C         117.1753  151.7615  147.9851 C.3     1  UNL111      0.0657
     13 C         120.1752  151.0927  146.0355 C.2     1  UNL111      0.0079
     14 C         121.4868  152.9624  146.9096 C.2     1  UNL111      0.1274
     15 C         119.4129  155.7333  146.5592 C.2     1  UNL111      0.1073
     16 C         117.7581  154.2064  145.2837 C.2     1  UNL111      0.0187
     17 C         118.4579  155.4852  145.7033 C.2     1  UNL111      0.0606
     18 C         121.3344  150.4609  145.6336 C.2     1  UNL111      0.0164
     19 C         115.2865  151.5957  146.4430 C.3     1  UNL111      0.1004
     20 C         122.6673  152.3502  146.5435 C.2     1  UNL111      0.1343
     21 C         122.5707  151.0767  145.9335 C.2     1  UNL111      0.0680
     22 C         119.9186  157.9785  146.2393 C.3     1  UNL111      0.0322
     23 C         124.9987  152.2982  146.5331 C.3     1  UNL111      0.2602
     24 H         116.6997  150.1754  146.7709 H       1  UNL111      0.1755
     25 H         120.7687  158.6388  146.0438 H       1  UNL111      0.1071
     26 H         119.5118  158.2259  147.2259 H       1  UNL111      0.1071
     27 H         119.1675  158.1516  145.4614 H       1  UNL111      0.1071
@<TRIPOS>UNITY_ATOM_ATTR
4 1
charge 1
@<TRIPOS>BOND
     1     1     8    1
     2     1    14    1
     3     2    15    1
     4     2    22    1
     5     3    20    1
     6     3    23    1
     7     4     7    1
     8     4    12    1
     9     4    19    1
    10     5     6    1
    11     5     8    1
    12     5     9    1
    13     5    10    1
    14     6     7    1
    15     6    16    2
    16     7    11    1
    17     8    15    1
    18     9    12    1
    19    10    13    2
    20    10    14    1
    21    11    13    1
    22    13    18    1
    23    14    20    2
    24    15    17    2
    25    16    17    1
    26    18    21    2
    27    20    21    1
    28     4    24    1
    29    22    25    1
    30    22    26    1
    31    22    27    1
@<TRIPOS>MOLECULE
133568470
 43 47 0 0 0
SMALL
GASTEIGER

@<TRIPOS>ATOM
      1 O         118.2837  154.3835  145.7683 O.2     1  UNL1111    -0.5013
      2 O         119.5372  157.1290  146.5590 O.2     1  UNL1111    -0.5694
      3 O         115.8367  152.8807  145.7513 O.2     1  UNL1111    -0.5679
      4 O         124.8401  151.1680  145.3915 O.2     1  UNL1111    -0.3903
      5 N         122.8126  151.8910  146.2566 N.am    1  UNL1111    -0.3273
      6 C         120.4470  153.4739  146.1821 C.3     1  UNL1111     0.0850
      7 C         121.2891  153.4456  147.4601 C.3     1  UNL1111     0.0179
      8 C         121.9782  152.0546  147.4572 C.3     1  UNL1111     0.0185
      9 C         121.2724  153.2598  144.8911 C.3     1  UNL1111    -0.0077
     10 C         119.3842  152.4602  146.3354 C.3     1  UNL1111     0.0327
     11 C         120.8936  150.8954  147.5501 C.3     1  UNL1111    -0.0098
     12 C         119.6067  154.7161  146.0825 C.2     1  UNL1111     0.1092
     13 C         122.1694  152.0289  144.9572 C.3     1  UNL1111     0.0010
     14 C         119.5519  151.2196  146.9162 C.3     1  UNL1111    -0.0420
     15 C         122.0748  154.7443  147.5026 C.2     1  UNL1111    -0.0732
     16 C         118.1548  153.0188  146.0037 C.3     1  UNL1111     0.1234
     17 C         120.1222  155.8930  146.5059 C.2     1  UNL1111     0.0893
     18 C         121.4946  155.8798  147.0444 C.2     1  UNL1111    -0.0200
     19 C         118.4052  150.4361  147.0000 C.3     1  UNL1111    -0.0580
     20 C         117.0036  152.2675  146.0956 C.3     1  UNL1111     0.0965
     21 C         124.1152  151.4432  146.3380 C.2     1  UNL1111     0.1397
     22 C         117.1494  150.9479  146.5697 C.3     1  UNL1111    -0.0126
     23 C         118.2141  157.2442  146.0503 C.3     1  UNL1111     0.0328
     24 C         114.6466  152.1144  145.8762 C.3     1  UNL1111     0.0332
     25 H         120.6569  153.4706  148.3635 H       1  UNL1111     0.0692
     26 H         122.6312  151.9689  148.3345 H       1  UNL1111     0.0844
     27 H         121.9141  154.1332  144.7135 H       1  UNL1111     0.0512
     28 H         120.6234  153.1806  144.0086 H       1  UNL1111     0.0512
     29 H         120.7019  150.7207  148.6169 H       1  UNL1111     0.0563
     30 H         121.2893  149.9660  147.1247 H       1  UNL1111     0.0563
     31 H         121.5876  151.1170  144.7806 H       1  UNL1111     0.0728
     32 H         122.9207  152.0750  144.1611 H       1  UNL1111     0.0728
     33 H         123.0693  154.7603  147.9351 H       1  UNL1111     0.0832
     34 H         122.0151  156.8324  147.0921 H       1  UNL1111     0.1117
     35 H         118.4495  149.4402  147.4359 H       1  UNL1111     0.0937
     36 H         124.4750  151.3566  147.3764 H       1  UNL1111     0.2392
     37 H         116.2882  150.2932  146.6713 H       1  UNL1111     0.1142
     38 H         117.9261  158.2985  146.1056 H       1  UNL1111     0.1073
     39 H         117.5083  156.6752  146.6634 H       1  UNL1111     0.1073
     40 H         118.1652  156.9409  144.9994 H       1  UNL1111     0.1073
     41 H         113.8079  152.7457  145.5673 H       1  UNL1111     0.1074
     42 H         114.4748  151.8185  146.9165 H       1  UNL1111     0.1074
     43 H         114.6678  151.2415  145.2153 H       1  UNL1111     0.1074
@<TRIPOS>BOND
     1     1    12    1
     2     1    16    1
     3     2    17    1
     4     2    23    1
     5     3    20    1
     6     3    24    1
     7     4    21    2
     8     5     8    1
     9     5    13    1
    10     5    21   am
    11     6     7    1
    12     6     9    1
    13     6    10    1
    14     6    12    1
    15     7     8    1
    16     7    15    1
    17     8    11    1
    18     9    13    1
    19    10    14   ar
    20    10    16   ar
    21    11    14    1
    22    12    17    2
    23    14    19   ar
    24    15    18    2
    25    16    20   ar
    26    17    18    1
    27    19    22   ar
    28    20    22   ar
    29     7    25    1
    30     8    26    1
    31     9    27    1
    32     9    28    1
    33    11    29    1
    34    11    30    1
    35    13    31    1
    36    13    32    1
    37    15    33    1
    38    18    34    1
    39    19    35    1
    40    21    36    1
    41    22    37    1
    42    23    38    1
    43    23    39    1
    44    23    40    1
    45    24    41    1
    46    24    42    1
    47    24    43    1
@<TRIPOS>MOLECULE
154733669
 52 57 0 0 0
SMALL
GASTEIGER

@<TRIPOS>ATOM
      1 O         120.7988  151.2168  145.7979 O.2     1  UNL111     -0.5514
      2 O         116.2616  151.9628  145.0024 O.2     1  UNL111     -0.4234
      3 O         123.6106  151.0496  145.8787 O.2     1  UNL111     -0.5684
      4 N         118.4688  155.9687  145.9718 N.4     1  UNL111      0.4278
      5 C         119.4897  153.2681  145.9997 C.3     1  UNL111      0.0501
      6 C         118.7858  153.8295  147.2687 C.3     1  UNL111      0.0038
      7 C         119.4423  151.7282  145.9324 C.3     1  UNL111      0.0724
      8 C         119.0887  155.3612  147.2503 C.3     1  UNL111     -0.0177
      9 C         118.6857  151.1984  147.1917 C.3     1  UNL111      0.0212
     10 C         117.2994  153.3711  147.2319 C.3     1  UNL111     -0.0167
     11 C         119.0295  153.9195  144.6812 C.3     1  UNL111     -0.0263
     12 C         117.2383  151.7931  147.1921 C.3     1  UNL111      0.0391
     13 C         120.9472  153.4729  146.1877 C.3     1  UNL111      0.0228
     14 C         119.3300  153.1124  148.5194 C.2     1  UNL111     -0.0913
     15 C         120.6368  155.6753  147.3217 C.3     1  UNL111     -0.0205
     16 C         119.0787  155.4401  144.6950 C.3     1  UNL111     -0.0362
     17 C         119.3183  151.7697  148.4496 C.2     1  UNL111     -0.0904
     18 C         121.5305  154.6079  146.7255 C.3     1  UNL111     -0.0423
     19 C         121.6355  152.2940  145.9889 C.3     1  UNL111      0.1044
     20 C         116.4310  151.2733  146.0087 C.2     1  UNL111      0.0795
     21 C         118.4046  157.4740  145.9814 C.3     1  UNL111     -0.0440
     22 C         122.9177  154.5946  146.8554 C.3     1  UNL111     -0.0570
     23 C         123.0115  152.2492  146.1230 C.3     1  UNL111      0.0924
     24 C         123.6537  153.4318  146.5262 C.3     1  UNL111     -0.0130
     25 C         115.8926  149.8693  146.1006 C.3     1  UNL111      0.0081
     26 C         125.0233  150.9867  146.0230 C.3     1  UNL111      0.0331
     27 H         117.4813  155.6813  145.9539 H       1  UNL111      0.1331
     28 H         118.9154  151.3858  145.0339 H       1  UNL111      0.1308
     29 H         118.5756  155.8583  148.0825 H       1  UNL111      0.0869
     30 H         118.6956  150.1047  147.2234 H       1  UNL111      0.0738
     31 H         116.7493  153.8168  146.3997 H       1  UNL111      0.0477
     32 H         116.7850  153.7196  148.1385 H       1  UNL111      0.0477
     33 H         118.0027  153.6177  144.4553 H       1  UNL111      0.0544
     34 H         119.6347  153.5600  143.8382 H       1  UNL111      0.0544
     35 H         116.7015  151.4676  148.0948 H       1  UNL111      0.0780
     36 H         119.7300  153.6387  149.3802 H       1  UNL111      0.0808
     37 H         120.8961  155.7444  148.3868 H       1  UNL111      0.0617
     38 H         120.8802  156.6439  146.8766 H       1  UNL111      0.0617
     39 H         120.0992  155.8276  144.6172 H       1  UNL111      0.0739
     40 H         118.4930  155.8466  143.8630 H       1  UNL111      0.0739
     41 H         119.7010  151.1242  149.2335 H       1  UNL111      0.0790
     42 H         119.4110  157.8813  145.8684 H       1  UNL111      0.0667
     43 H         117.9524  157.7898  146.9248 H       1  UNL111      0.0667
     44 H         117.7719  157.7849  145.1455 H       1  UNL111      0.0667
     45 H         123.4487  155.4521  147.2649 H       1  UNL111      0.0939
     46 H         124.7319  153.4659  146.6588 H       1  UNL111      0.1142
     47 H         115.2530  149.6656  145.2372 H       1  UNL111      0.0587
     48 H         115.2937  149.7636  147.0085 H       1  UNL111      0.0587
     49 H         116.7183  149.1546  146.1069 H       1  UNL111      0.0587
     50 H         125.3391  149.9663  145.7856 H       1  UNL111      0.1074
     51 H         125.3238  151.1974  147.0546 H       1  UNL111      0.1074
     52 H         125.5220  151.6623  145.3203 H       1  UNL111      0.1074
@<TRIPOS>UNITY_ATOM_ATTR
4 1
charge 1
@<TRIPOS>BOND
     1     1     7    1
     2     1    19    1
     3     2    20    2
     4     3    23    1
     5     3    26    1
     6     4     8    1
     7     4    16    1
     8     4    21    1
     9     5     6    1
    10     5     7    1
    11     5    11    1
    12     5    13    1
    13     6     8    1
    14     6    10    1
    15     6    14    1
    16     7     9    1
    17     8    15    1
    18     9    12    1
    19     9    17    1
    20    10    12    1
    21    11    16    1
    22    12    20    1
    23    13    18   ar
    24    13    19   ar
    25    14    17    2
    26    15    18    1
    27    18    22   ar
    28    19    23   ar
    29    20    25    1
    30    22    24   ar
    31    23    24   ar
    32     4    27    1
    33     7    28    1
    34     8    29    1
    35     9    30    1
    36    10    31    1
    37    10    32    1
    38    11    33    1
    39    11    34    1
    40    12    35    1
    41    14    36    1
    42    15    37    1
    43    15    38    1
    44    16    39    1
    45    16    40    1
    46    17    41    1
    47    21    42    1
    48    21    43    1
    49    21    44    1
    50    22    45    1
    51    24    46    1
    52    25    47    1
    53    25    48    1
    54    25    49    1
    55    26    50    1
    56    26    51    1
    57    26    52    1
@<TRIPOS>MOLECULE
11865354
 45 49 0 0 0
SMALL
GASTEIGER

@<TRIPOS>ATOM
      1 O         118.1299  152.5295  147.1012 O.3     1  UNL111     -0.5313
      2 O         118.3417  149.6829  146.3456 O.2     1  UNL111     -0.5764
      3 O         116.1652  154.7831  146.4135 O.3     1  UNL111     -0.5683
      4 N         123.2666  153.8549  146.7432 N.4     1  UNL111      0.4294
      5 C         120.5453  152.7634  146.8159 C.3     1  UNL111      0.0761
      6 C         122.4619  153.5798  145.4728 C.3     1  UNL111     -0.0050
      7 C         121.5182  152.4294  145.7127 C.2     1  UNL111     -0.0492
      8 C         121.3084  153.0810  148.1168 C.3     1  UNL111     -0.0195
      9 C         119.3810  151.7776  147.0949 C.3     1  UNL111      0.1261
     10 C         119.7600  153.9283  146.3235 C.ar    1  UNL111      0.0315
     11 C         122.3965  154.1353  147.9465 C.3     1  UNL111     -0.0339
     12 C         121.6911  154.8816  145.0400 C.3     1  UNL111     -0.0165
     13 C         120.2738  154.9770  145.5662 C.ar    1  UNL111     -0.0395
     14 C         118.4108  153.7642  146.5753 C.ar    1  UNL111      0.1111
     15 C         121.4064  151.3045  144.9901 C.2     1  UNL111     -0.0564
     16 C         119.3391  150.6140  146.1218 C.2     1  UNL111      0.0616
     17 C         124.3098  152.7988  147.0074 C.3     1  UNL111     -0.0431
     18 C         120.3091  150.3884  145.2163 C.2     1  UNL111     -0.0212
     19 C         119.3876  155.9852  145.1999 C.ar    1  UNL111     -0.0566
     20 C         117.5143  154.7557  146.2219 C.ar    1  UNL111      0.0935
     21 C         118.0270  155.8807  145.5499 C.ar    1  UNL111     -0.0128
     22 C         117.2867  149.8175  145.3921 C.3     1  UNL111      0.0306
     23 C         115.5847  153.7096  147.1428 C.3     1  UNL111      0.0331
     24 H         123.7996  154.7164  146.5681 H       1  UNL111      0.1349
     25 H         123.2045  153.3486  144.6998 H       1  UNL111      0.0950
     26 H         121.7659  152.1588  148.4998 H       1  UNL111      0.0565
     27 H         120.6172  153.4254  148.8975 H       1  UNL111      0.0565
     28 H         119.4773  151.3460  148.1004 H       1  UNL111      0.1600
     29 H         121.9739  155.1359  147.8098 H       1  UNL111      0.0744
     30 H         123.0486  154.1796  148.8259 H       1  UNL111      0.0744
     31 H         121.6211  154.8666  143.9439 H       1  UNL111      0.0634
     32 H         122.2531  155.7809  145.3175 H       1  UNL111      0.0634
     33 H         122.0676  151.0812  144.1558 H       1  UNL111      0.0949
     34 H         123.8179  151.8486  147.2273 H       1  UNL111      0.0670
     35 H         124.9134  153.1286  147.8571 H       1  UNL111      0.0670
     36 H         124.9409  152.7165  146.1186 H       1  UNL111      0.0670
     37 H         120.2716  149.4948  144.5963 H       1  UNL111      0.1116
     38 H         119.7140  156.8359  144.6051 H       1  UNL111      0.0940
     39 H         117.3395  156.6703  145.2471 H       1  UNL111      0.1142
     40 H         116.4948  149.1140  145.6653 H       1  UNL111      0.1069
     41 H         117.6361  149.5642  144.3857 H       1  UNL111      0.1069
     42 H         116.8658  150.8279  145.4032 H       1  UNL111      0.1069
     43 H         114.5211  153.9335  147.2710 H       1  UNL111      0.1074
     44 H         116.0238  153.6204  148.1416 H       1  UNL111      0.1074
     45 H         115.6561  152.7718  146.5837 H       1  UNL111      0.1074
@<TRIPOS>UNITY_ATOM_ATTR
4 1
charge 1
@<TRIPOS>BOND
     1     1     9    1
     2     1    14    1
     3     2    16    1
     4     2    22    1
     5     3    20    1
     6     3    23    1
     7     4     6    1
     8     4    11    1
     9     4    17    1
    10     5     7    1
    11     5     8    1
    12     5     9    1
    13     5    10    1
    14     6     7    1
    15     6    12    1
    16     7    15    2
    17     8    11    1
    18     9    16    1
    19    10    13   ar
    20    10    14   ar
    21    12    13    1
    22    13    19   ar
    23    14    20   ar
    24    15    18    1
    25    16    18    2
    26    19    21   ar
    27    20    21   ar
    28     4    24    1
    29     6    25    1
    30     8    26    1
    31     8    27    1
    32     9    28    1
    33    11    29    1
    34    11    30    1
    35    12    31    1
    36    12    32    1
    37    15    33    1
    38    17    34    1
    39    17    35    1
    40    17    36    1
    41    18    37    1
    42    19    38    1
    43    21    39    1
    44    22    40    1
    45    22    41    1
    46    22    42    1
    47    23    43    1
    48    23    44    1
    49    23    45    1
@<TRIPOS>MOLECULE
10075
 49 53 0 0 0
SMALL
GASTEIGER

@<TRIPOS>ATOM
      1 O         118.6163  153.0075  145.0373 O.2     1  UNL111     -0.5323
      2 O         117.3043  155.3531  146.0799 O.3     1  UNL111     -0.4695
      3 O         117.5273  150.4661  145.6290 O.2     1  UNL111     -0.5683
      4 O         116.6195  153.9067  147.7700 O.2     1  UNL111     -0.3384
      5 N         123.6705  153.7332  145.9834 N.4     1  UNL111      0.4271
      6 C         120.7871  153.8143  145.7094 C.3     1  UNL111      0.0591
      7 C         121.5096  154.6605  146.7628 C.3     1  UNL111     -0.0102
      8 C         122.7511  153.8488  147.2213 C.3     1  UNL111     -0.0240
      9 C         119.3565  154.2378  145.3182 C.3     1  UNL111      0.1262
     10 C         121.6894  153.6267  144.4713 C.3     1  UNL111     -0.0250
     11 C         120.4578  152.4836  146.2863 C.3     1  UNL111      0.0249
     12 C         122.4087  152.4460  147.8289 C.3     1  UNL111     -0.0223
     13 C         120.6126  155.0891  147.9389 C.3     1  UNL111     -0.0169
     14 C         123.0458  153.0141  144.8084 C.3     1  UNL111     -0.0365
     15 C         121.2042  151.7845  147.2143 C.3     1  UNL111     -0.0425
     16 C         119.2319  152.0521  145.8158 C.3     1  UNL111      0.1093
     17 C         118.6425  155.0410  146.3841 C.2     1  UNL111      0.0929
     18 C         119.2177  155.4480  147.5293 C.2     1  UNL111     -0.0360
     19 C         125.0476  153.2048  146.2929 C.3     1  UNL111     -0.0444
     20 C         120.7109  150.5387  147.5985 C.3     1  UNL111     -0.0571
     21 C         118.7251  150.8185  146.1738 C.3     1  UNL111      0.0932
     22 C         119.4920  150.0528  147.0661 C.3     1  UNL111     -0.0129
     23 C         116.3835  154.6613  146.8348 C.2     1  UNL111      0.2243
     24 C         116.8971  149.3059  146.1562 C.3     1  UNL111      0.0331
     25 C         115.0039  154.9848  146.3445 C.3     1  UNL111      0.0569
     26 H         123.8353  154.6993  145.6685 H       1  UNL111      0.1324
     27 H         121.8480  155.5908  146.2820 H       1  UNL111      0.0644
     28 H         123.3300  154.4302  147.9490 H       1  UNL111      0.0838
     29 H         119.3653  154.8331  144.3965 H       1  UNL111      0.1588
     30 H         121.8503  154.6052  143.9991 H       1  UNL111      0.0545
     31 H         121.2030  152.9988  143.7134 H       1  UNL111      0.0545
     32 H         122.1844  152.5949  148.8931 H       1  UNL111      0.0613
     33 H         123.2646  151.7669  147.7818 H       1  UNL111      0.0613
     34 H         121.0733  155.9583  148.4246 H       1  UNL111      0.0508
     35 H         120.5471  154.3116  148.7077 H       1  UNL111      0.0508
     36 H         122.9774  151.9508  145.0586 H       1  UNL111      0.0738
     37 H         123.7315  153.1252  143.9612 H       1  UNL111      0.0738
     38 H         118.6234  156.0069  148.2507 H       1  UNL111      0.1003
     39 H         124.9860  152.1342  146.4978 H       1  UNL111      0.0667
     40 H         125.4386  153.7531  147.1534 H       1  UNL111      0.0667
     41 H         125.6775  153.3889  145.4182 H       1  UNL111      0.0667
     42 H         121.2387  149.9324  148.3328 H       1  UNL111      0.0939
     43 H         119.1527  149.0748  147.3973 H       1  UNL111      0.1142
     44 H         115.9149  149.2141  145.6827 H       1  UNL111      0.1074
     45 H         116.7402  149.3943  147.2364 H       1  UNL111      0.1074
     46 H         117.4698  148.4051  145.9129 H       1  UNL111      0.1074
     47 H         114.8227  156.0594  146.4278 H       1  UNL111      0.0797
     48 H         114.2682  154.4597  146.9604 H       1  UNL111      0.0797
     49 H         114.8924  154.6538  145.3090 H       1  UNL111      0.0797
@<TRIPOS>UNITY_ATOM_ATTR
5 1
charge 1
@<TRIPOS>BOND
     1     1     9    1
     2     1    16    1
     3     2    17    1
     4     2    23    1
     5     3    21    1
     6     3    24    1
     7     4    23    2
     8     5     8    1
     9     5    14    1
    10     5    19    1
    11     6     7    1
    12     6     9    1
    13     6    10    1
    14     6    11    1
    15     7     8    1
    16     7    13    1
    17     8    12    1
    18     9    17    1
    19    10    14    1
    20    11    15   ar
    21    11    16   ar
    22    12    15    1
    23    13    18    1
    24    15    20   ar
    25    16    21   ar
    26    17    18    2
    27    20    22   ar
    28    21    22   ar
    29    23    25    1
    30     5    26    1
    31     7    27    1
    32     8    28    1
    33     9    29    1
    34    10    30    1
    35    10    31    1
    36    12    32    1
    37    12    33    1
    38    13    34    1
    39    13    35    1
    40    14    36    1
    41    14    37    1
    42    18    38    1
    43    19    39    1
    44    19    40    1
    45    19    41    1
    46    20    42    1
    47    22    43    1
    48    24    44    1
    49    24    45    1
    50    24    46    1
    51    25    47    1
    52    25    48    1
    53    25    49    1
@<TRIPOS>MOLECULE
5486617
 47 51 0 0 0
SMALL
GASTEIGER

@<TRIPOS>ATOM
      1 O         118.3256  153.9151  145.4319 O.3     1  UNL111     -0.5333
      2 O         118.1382  156.4917  146.9699 O.2     1  UNL111     -0.5783
      3 O         116.3973  151.8834  145.8164 O.3     1  UNL111     -0.5683
      4 N         123.3336  152.6004  145.8932 N.4     1  UNL111      0.4271
      5 C         120.6761  153.7572  145.9443 C.3     1  UNL111      0.0582
      6 C         121.7152  154.1025  147.0145 C.3     1  UNL111     -0.0103
      7 C         122.5892  152.8376  147.2267 C.3     1  UNL111     -0.0240
      8 C         119.4931  154.7361  145.7580 C.3     1  UNL111      0.1193
      9 C         121.3769  153.4498  144.6031 C.3     1  UNL111     -0.0250
     10 C         119.9032  152.5653  146.3842 C.ar    1  UNL111      0.0248
     11 C         121.7829  151.5730  147.6785 C.3     1  UNL111     -0.0223
     12 C         121.0933  154.6197  148.3226 C.3     1  UNL111     -0.0178
     13 C         122.4247  152.3462  144.7119 C.3     1  UNL111     -0.0365
     14 C         120.3846  151.5025  147.1241 C.ar    1  UNL111     -0.0425
     15 C         118.5805  152.6918  146.0088 C.ar    1  UNL111      0.1091
     16 C         119.2088  155.6103  146.9726 C.2     1  UNL111      0.0527
     17 C         119.9344  155.5389  148.1002 C.2     1  UNL111     -0.0436
     18 C         124.4351  151.5757  145.9820 C.3     1  UNL111     -0.0444
     19 C         119.4833  150.4758  147.3999 C.ar    1  UNL111     -0.0571
     20 C         117.6699  151.6831  146.2588 C.ar    1  UNL111      0.0932
     21 C         118.1430  150.5579  146.9522 C.ar    1  UNL111     -0.0129
     22 C         117.6919  156.9758  145.7085 C.3     1  UNL111      0.0302
     23 C         115.4291  150.8998  146.1571 C.3     1  UNL111      0.0331
     24 H         123.8245  153.4818  145.6883 H       1  UNL111      0.1324
     25 H         122.3491  154.9158  146.6300 H       1  UNL111      0.0643
     26 H         123.3793  153.0473  147.9577 H       1  UNL111      0.0838
     27 H         119.6900  155.3884  144.8986 H       1  UNL111      0.1577
     28 H         121.8649  154.3650  144.2416 H       1  UNL111      0.0545
     29 H         120.6513  153.1652  143.8299 H       1  UNL111      0.0545
     30 H         121.6922  151.6152  148.7718 H       1  UNL111      0.0613
     31 H         122.3179  150.6484  147.4443 H       1  UNL111      0.0613
     32 H         121.8682  155.1562  148.8841 H       1  UNL111      0.0507
     33 H         120.7581  153.8038  148.9717 H       1  UNL111      0.0507
     34 H         121.9801  151.3534  144.8327 H       1  UNL111      0.0738
     35 H         123.0555  152.3345  143.8163 H       1  UNL111      0.0738
     36 H         119.6395  156.1644  148.9425 H       1  UNL111      0.0992
     37 H         123.9960  150.5789  146.0565 H       1  UNL111      0.0667
     38 H         125.0475  151.8073  146.8568 H       1  UNL111      0.0667
     39 H         125.0387  151.6584  145.0740 H       1  UNL111      0.0667
     40 H         119.7872  149.6092  147.9848 H       1  UNL111      0.0939
     41 H         117.4811  149.7300  147.1932 H       1  UNL111      0.1142
     42 H         116.9520  157.7602  145.8938 H       1  UNL111      0.1069
     43 H         117.2034  156.1871  145.1303 H       1  UNL111      0.1069
     44 H         118.5185  157.4197  145.1443 H       1  UNL111      0.1069
     45 H         114.4633  151.2297  145.7626 H       1  UNL111      0.1074
     46 H         115.3303  150.8013  147.2432 H       1  UNL111      0.1074
     47 H         115.6675  149.9369  145.6934 H       1  UNL111      0.1074
@<TRIPOS>UNITY_ATOM_ATTR
4 1
charge 1
@<TRIPOS>BOND
     1     1     8    1
     2     1    15    1
     3     2    16    1
     4     2    22    1
     5     3    20    1
     6     3    23    1
     7     4     7    1
     8     4    13    1
     9     4    18    1
    10     5     6    1
    11     5     8    1
    12     5     9    1
    13     5    10    1
    14     6     7    1
    15     6    12    1
    16     7    11    1
    17     8    16    1
    18     9    13    1
    19    10    14   ar
    20    10    15   ar
    21    11    14    1
    22    12    17    1
    23    14    19   ar
    24    15    20   ar
    25    16    17    2
    26    19    21   ar
    27    20    21   ar
    28     4    24    1
    29     6    25    1
    30     7    26    1
    31     8    27    1
    32     9    28    1
    33     9    29    1
    34    11    30    1
    35    11    31    1
    36    12    32    1
    37    12    33    1
    38    13    34    1
    39    13    35    1
    40    17    36    1
    41    18    37    1
    42    18    38    1
    43    18    39    1
    44    19    40    1
    45    21    41    1
    46    22    42    1
    47    22    43    1
    48    22    44    1
    49    23    45    1
    50    23    46    1
    51    23    47    1
@<TRIPOS>MOLECULE
408120
 45 49 0 0 0
SMALL
GASTEIGER

@<TRIPOS>ATOM
      1 O         121.3481  154.0451  145.5864 O.3     1  UNL111     -0.5313
      2 O         120.5998  156.6507  146.7863 O.2     1  UNL111     -0.5764
      3 O         123.8268  152.3149  146.1255 O.3     1  UNL111     -0.5683
      4 N         116.7166  151.4747  145.9371 N.4     1  UNL111      0.4294
      5 C         119.0780  153.2150  145.9127 C.3     1  UNL111      0.0761
      6 C         118.0767  153.2339  147.0376 C.2     1  UNL111     -0.0492
      7 C         117.4520  151.8742  147.2162 C.3     1  UNL111     -0.0050
      8 C         119.9566  154.4750  145.6857 C.3     1  UNL111      0.1261
      9 C         118.3903  152.7897  144.5998 C.3     1  UNL111     -0.0195
     10 C         120.1374  152.2552  146.3256 C.ar    1  UNL111      0.0315
     11 C         118.5327  150.7854  147.5701 C.3     1  UNL111     -0.0165
     12 C         117.6042  151.4880  144.7146 C.3     1  UNL111     -0.0339
     13 C         119.9163  151.0712  147.0229 C.ar    1  UNL111     -0.0395
     14 C         121.3968  152.7593  146.0605 C.ar    1  UNL111      0.1111
     15 C         119.7629  155.5458  146.7507 C.2     1  UNL111      0.0616
     16 C         117.9337  154.3037  147.8336 C.2     1  UNL111     -0.0564
     17 C         118.8089  155.4473  147.6932 C.2     1  UNL111     -0.0212
     18 C         121.0322  150.2923  147.3117 C.ar    1  UNL111     -0.0566
     19 C         115.4356  152.2449  145.7419 C.3     1  UNL111     -0.0431
     20 C         122.5182  152.0012  146.3413 C.ar    1  UNL111      0.0935
     21 C         122.3152  150.7472  146.9472 C.ar    1  UNL111     -0.0128
     22 C         120.9791  157.1866  145.5229 C.3     1  UNL111      0.0306
     23 C         124.1132  153.6049  145.6009 C.3     1  UNL111      0.0331
     24 H         116.4219  150.4982  146.0663 H       1  UNL111      0.1349
     25 H         116.6910  151.8707  148.0058 H       1  UNL111      0.0950
     26 H         119.7068  154.9291  144.7179 H       1  UNL111      0.1600
     27 H         119.1284  152.6743  143.7949 H       1  UNL111      0.0565
     28 H         117.7083  153.5876  144.2760 H       1  UNL111      0.0565
     29 H         118.2042  149.7895  147.2510 H       1  UNL111      0.0634
     30 H         118.6239  150.7636  148.6645 H       1  UNL111      0.0634
     31 H         116.9663  151.3303  143.8379 H       1  UNL111      0.0744
     32 H         118.2663  150.6193  144.7898 H       1  UNL111      0.0744
     33 H         117.2619  154.3056  148.6892 H       1  UNL111      0.0949
     34 H         118.7195  156.2321  148.4429 H       1  UNL111      0.1116
     35 H         120.9415  149.3553  147.8572 H       1  UNL111      0.0940
     36 H         115.6673  153.2995  145.5763 H       1  UNL111      0.0670
     37 H         114.8222  152.1146  146.6373 H       1  UNL111      0.0670
     38 H         114.9178  151.8214  144.8772 H       1  UNL111      0.0670
     39 H         123.1834  150.1349  147.1903 H       1  UNL111      0.1142
     40 H         121.4585  158.1541  145.6991 H       1  UNL111      0.1069
     41 H         120.1036  157.3525  144.8864 H       1  UNL111      0.1069
     42 H         121.7050  156.5400  145.0222 H       1  UNL111      0.1069
     43 H         125.2002  153.6899  145.5058 H       1  UNL111      0.1074
     44 H         123.7813  154.3935  146.2839 H       1  UNL111      0.1074
     45 H         123.6864  153.7291  144.6006 H       1  UNL111      0.1074
@<TRIPOS>UNITY_ATOM_ATTR
4 1
charge 1
@<TRIPOS>BOND
     1     1     8    1
     2     1    14    1
     3     2    15    1
     4     2    22    1
     5     3    20    1
     6     3    23    1
     7     4     7    1
     8     4    12    1
     9     4    19    1
    10     5     6    1
    11     5     8    1
    12     5     9    1
    13     5    10    1
    14     6     7    1
    15     6    16    2
    16     7    11    1
    17     8    15    1
    18     9    12    1
    19    10    13   ar
    20    10    14   ar
    21    11    13    1
    22    13    18   ar
    23    14    20   ar
    24    15    17    2
    25    16    17    1
    26    18    21   ar
    27    20    21   ar
    28     4    24    1
    29     7    25    1
    30     8    26    1
    31     9    27    1
    32     9    28    1
    33    11    29    1
    34    11    30    1
    35    12    31    1
    36    12    32    1
    37    16    33    1
    38    17    34    1
    39    18    35    1
    40    19    36    1
    41    19    37    1
    42    19    38    1
    43    21    39    1
    44    22    40    1
    45    22    41    1
    46    22    42    1
    47    23    43    1
    48    23    44    1
    49    23    45    1
@<TRIPOS>MOLECULE
11508377
 49 53 0 0 0
SMALL
GASTEIGER

@<TRIPOS>ATOM
      1 O         118.7704  151.9728  145.5071 O.2     1  UNL111     -0.5323
      2 O         116.4962  153.1787  146.9522 O.3     1  UNL111     -0.4695
      3 O         119.5327  149.2822  145.8999 O.2     1  UNL111     -0.5683
      4 O         116.0590  154.9233  145.4901 O.2     1  UNL111     -0.3384
      5 N         122.4729  155.6286  145.8397 N.4     1  UNL111      0.4271
      6 C         120.1377  153.9182  145.9481 C.3     1  UNL111      0.0591
      7 C         120.3947  154.9835  147.0200 C.3     1  UNL111     -0.0102
      8 C         121.9331  155.0976  147.1863 C.3     1  UNL111     -0.0240
      9 C         118.6895  153.4059  145.7954 C.3     1  UNL111      0.1262
     10 C         120.7226  154.3687  144.5927 C.3     1  UNL111     -0.0250
     11 C         120.7769  152.6450  146.3736 C.3     1  UNL111      0.0249
     12 C         122.6302  153.7594  147.6073 C.3     1  UNL111     -0.0223
     13 C         119.6703  154.6995  148.3506 C.3     1  UNL111     -0.0169
     14 C         122.2051  154.7181  144.6629 C.3     1  UNL111     -0.0365
     15 C         121.9585  152.5188  147.0789 C.3     1  UNL111     -0.0425
     16 C         119.9745  151.5716  146.0400 C.3     1  UNL111      0.1093
     17 C         117.8278  153.6341  147.0243 C.2     1  UNL111      0.0929
     18 C         118.2725  154.1955  148.1602 C.2     1  UNL111     -0.0360
     19 C         123.9116  156.0726  145.8886 C.3     1  UNL111     -0.0444
     20 C         122.3856  151.2207  147.3536 C.3     1  UNL111     -0.0571
     21 C         120.3788  150.2746  146.2933 C.3     1  UNL111      0.0932
     22 C         121.6110  150.1088  146.9450 C.3     1  UNL111     -0.0129
     23 C         115.7105  153.9225  146.1065 C.2     1  UNL111      0.2243
     24 C         119.9129  147.9460  146.2016 C.3     1  UNL111      0.0331
     25 C         114.3323  153.3354  146.0575 C.3     1  UNL111      0.0569
     26 H         121.9469  156.4937  145.6507 H       1  UNL111      0.1324
     27 H         120.0021  155.9438  146.6527 H       1  UNL111      0.0644
     28 H         122.1736  155.8803  147.9157 H       1  UNL111      0.0838
     29 H         118.2185  153.8791  144.9273 H       1  UNL111      0.1588
     30 H         120.1693  155.2518  144.2457 H       1  UNL111      0.0545
     31 H         120.5828  153.5985  143.8230 H       1  UNL111      0.0545
     32 H         122.5911  153.7016  148.7030 H       1  UNL111      0.0613
     33 H         123.6881  153.7502  147.3303 H       1  UNL111      0.0613
     34 H         119.6347  155.6313  148.9285 H       1  UNL111      0.0508
     35 H         120.2114  153.9766  148.9705 H       1  UNL111      0.0508
     36 H         122.8420  153.8340  144.7656 H       1  UNL111      0.0738
     37 H         122.5093  155.2592  143.7601 H       1  UNL111      0.0738
     38 H         117.5957  154.2775  149.0091 H       1  UNL111      0.1003
     39 H         124.5585  155.1951  145.9468 H       1  UNL111      0.0667
     40 H         124.0400  156.7197  146.7598 H       1  UNL111      0.0667
     41 H         124.1162  156.6364  144.9744 H       1  UNL111      0.0667
     42 H         123.3041  151.0422  147.9104 H       1  UNL111      0.0939
     43 H         121.9879  149.1182  147.1862 H       1  UNL111      0.1142
     44 H         119.1243  147.2823  145.8343 H       1  UNL111      0.1074
     45 H         119.9997  147.7948  147.2827 H       1  UNL111      0.1074
     46 H         120.8420  147.6759  145.6891 H       1  UNL111      0.1074
     47 H         114.3838  152.2948  145.7273 H       1  UNL111      0.0797
     48 H         113.7255  153.8958  145.3406 H       1  UNL111      0.0797
     49 H         113.8655  153.4046  147.0430 H       1  UNL111      0.0797
@<TRIPOS>UNITY_ATOM_ATTR
5 1
charge 1
@<TRIPOS>BOND
     1     1     9    1
     2     1    16    1
     3     2    17    1
     4     2    23    1
     5     3    21    1
     6     3    24    1
     7     4    23    2
     8     5     8    1
     9     5    14    1
    10     5    19    1
    11     6     7    1
    12     6     9    1
    13     6    10    1
    14     6    11    1
    15     7     8    1
    16     7    13    1
    17     8    12    1
    18     9    17    1
    19    10    14    1
    20    11    15   ar
    21    11    16   ar
    22    12    15    1
    23    13    18    1
    24    15    20   ar
    25    16    21   ar
    26    17    18    2
    27    20    22   ar
    28    21    22   ar
    29    23    25    1
    30     5    26    1
    31     7    27    1
    32     8    28    1
    33     9    29    1
    34    10    30    1
    35    10    31    1
    36    12    32    1
    37    12    33    1
    38    13    34    1
    39    13    35    1
    40    14    36    1
    41    14    37    1
    42    18    38    1
    43    19    39    1
    44    19    40    1
    45    19    41    1
    46    20    42    1
    47    22    43    1
    48    24    44    1
    49    24    45    1
    50    24    46    1
    51    25    47    1
    52    25    48    1
    53    25    49    1
