@<TRIPOS>MOLECULE
33741
 45 46 0 0 0
SMALL
GASTEIGER

@<TRIPOS>ATOM
      1 O         118.5069  154.4064  148.0829 O.3     1  UNL111     -0.4393
      2 O         123.2879  152.6741  144.8072 O.3     1  UNL111     -0.5834
      3 N         117.4974  150.6327  146.3523 N.4     1  UNL111      0.4247
      4 C         118.2527  153.0706  146.1093 C.3     1  UNL111     -0.0172
      5 C         119.1053  154.1860  146.7983 C.3     1  UNL111      0.0415
      6 C         116.8188  153.5687  145.8224 C.3     1  UNL111     -0.0462
      7 C         119.0405  155.5093  146.0022 C.3     1  UNL111     -0.0256
      8 C         116.8036  154.8812  145.0440 C.3     1  UNL111     -0.0576
      9 C         117.6060  155.9659  145.7477 C.3     1  UNL111     -0.0530
     10 C         118.2340  151.8027  146.9925 C.3     1  UNL111     -0.0326
     11 C         120.5603  153.7447  146.9772 C.ar    1  UNL111     -0.0278
     12 C         121.3479  153.4122  145.8580 C.ar    1  UNL111     -0.0168
     13 C         121.1529  153.6308  148.2447 C.ar    1  UNL111     -0.0664
     14 C         117.3034  149.5209  147.3526 C.3     1  UNL111     -0.0463
     15 C         118.1567  150.1172  145.1028 C.3     1  UNL111     -0.0463
     16 C         122.6713  152.9761  145.9894 C.ar    1  UNL111      0.0355
     17 C         122.4749  153.2007  148.3820 C.ar    1  UNL111     -0.0678
     18 C         123.2326  152.8705  147.2579 C.ar    1  UNL111     -0.0311
     19 C         124.6817  152.3876  144.8664 C.3     1  UNL111      0.0293
     20 H         118.8219  155.2717  148.4076 H       1  UNL111      0.2418
     21 H         116.5537  150.9507  146.1017 H       1  UNL111      0.1292
     22 H         118.7129  152.8318  145.1434 H       1  UNL111      0.0678
     23 H         116.2695  153.6990  146.7632 H       1  UNL111      0.0385
     24 H         116.2677  152.8254  145.2361 H       1  UNL111      0.0385
     25 H         119.5481  155.4072  145.0350 H       1  UNL111      0.0490
     26 H         119.5631  156.3050  146.5491 H       1  UNL111      0.0490
     27 H         115.7688  155.2171  144.9122 H       1  UNL111      0.0329
     28 H         117.2141  154.7141  144.0405 H       1  UNL111      0.0329
     29 H         117.6145  156.8734  145.1332 H       1  UNL111      0.0344
     30 H         117.1215  156.2302  146.6952 H       1  UNL111      0.0344
     31 H         119.2412  151.4360  147.2147 H       1  UNL111      0.0760
     32 H         117.7187  152.0030  147.9388 H       1  UNL111      0.0760
     33 H         120.9451  153.4988  144.8503 H       1  UNL111      0.1146
     34 H         120.5999  153.8719  149.1505 H       1  UNL111      0.0922
     35 H         118.2858  149.1475  147.6541 H       1  UNL111      0.0661
     36 H         116.7135  148.7339  146.8751 H       1  UNL111      0.0661
     37 H         116.7553  149.9241  148.2081 H       1  UNL111      0.0661
     38 H         119.1920  149.8543  145.3352 H       1  UNL111      0.0661
     39 H         118.1059  150.8934  144.3369 H       1  UNL111      0.0661
     40 H         117.5997  149.2408  144.7602 H       1  UNL111      0.0661
     41 H         122.9196  153.1247  149.3725 H       1  UNL111      0.0912
     42 H         124.2548  152.5379  147.4086 H       1  UNL111      0.1103
     43 H         125.0367  152.2439  143.8413 H       1  UNL111      0.1069
     44 H         124.8671  151.4594  145.4166 H       1  UNL111      0.1069
     45 H         125.2407  153.2236  145.2998 H       1  UNL111      0.1069
@<TRIPOS>UNITY_ATOM_ATTR
3 1
charge 1
@<TRIPOS>BOND
     1     1     5    1
     2     2    16    1
     3     2    19    1
     4     3    10    1
     5     3    14    1
     6     3    15    1
     7     4     5    1
     8     4     6    1
     9     4    10    1
    10     5     7    1
    11     5    11    1
    12     6     8    1
    13     7     9    1
    14     8     9    1
    15    11    12   ar
    16    11    13   ar
    17    12    16   ar
    18    13    17   ar
    19    16    18   ar
    20    17    18   ar
    21     1    20    1
    22     3    21    1
    23     4    22    1
    24     6    23    1
    25     6    24    1
    26     7    25    1
    27     7    26    1
    28     8    27    1
    29     8    28    1
    30     9    29    1
    31     9    30    1
    32    10    31    1
    33    10    32    1
    34    12    33    1
    35    13    34    1
    36    14    35    1
    37    14    36    1
    38    14    37    1
    39    15    38    1
    40    15    39    1
    41    15    40    1
    42    17    41    1
    43    18    42    1
    44    19    43    1
    45    19    44    1
    46    19    45    1
@<TRIPOS>MOLECULE
63015
 45 46 0 0 0
SMALL
GASTEIGER

@<TRIPOS>ATOM
      1 O         119.3737  151.5584  144.6169 O.3     1  UNL111     -0.4393
      2 O         123.7694  154.0760  145.5276 O.3     1  UNL111     -0.5834
      3 N         117.6784  155.4614  147.1711 N.4     1  UNL111      0.4247
      4 C         118.4246  153.3848  145.8677 C.3     1  UNL111     -0.0172
      5 C         119.2260  152.0405  145.9617 C.3     1  UNL111      0.0415
      6 C         117.0217  153.1265  145.2716 C.3     1  UNL111     -0.0462
      7 C         118.4104  150.9691  146.7232 C.3     1  UNL111     -0.0256
      8 C         116.2358  152.0678  146.0383 C.3     1  UNL111     -0.0576
      9 C         117.0124  150.7604  146.1371 C.3     1  UNL111     -0.0530
     10 C         118.3869  154.1155  147.2275 C.3     1  UNL111     -0.0326
     11 C         120.6427  152.2729  146.4913 C.ar    1  UNL111     -0.0278
     12 C         121.5483  153.0390  145.7212 C.ar    1  UNL111     -0.0168
     13 C         121.0831  151.7850  147.7316 C.ar    1  UNL111     -0.0664
     14 C         118.3693  156.4685  146.2887 C.3     1  UNL111     -0.0463
     15 C         117.4792  156.0204  148.5582 C.3     1  UNL111     -0.0463
     16 C         122.8339  153.3273  146.1834 C.ar    1  UNL111      0.0355
     17 C         122.3665  152.0757  148.1979 C.ar    1  UNL111     -0.0678
     18 C         123.2309  152.8528  147.4310 C.ar    1  UNL111     -0.0311
     19 C         123.5582  154.2985  144.1381 C.3     1  UNL111      0.0293
     20 H         120.0240  150.8307  144.6313 H       1  UNL111      0.2418
     21 H         116.7355  155.3171  146.7898 H       1  UNL111      0.1292
     22 H         118.9407  154.0295  145.1449 H       1  UNL111      0.0678
     23 H         117.1331  152.7933  144.2313 H       1  UNL111      0.0385
     24 H         116.4370  154.0499  145.2156 H       1  UNL111      0.0385
     25 H         118.3011  151.2393  147.7802 H       1  UNL111      0.0490
     26 H         118.9342  150.0049  146.6905 H       1  UNL111      0.0490
     27 H         115.2801  151.8855  145.5335 H       1  UNL111      0.0329
     28 H         115.9943  152.4329  147.0431 H       1  UNL111      0.0329
     29 H         116.4569  150.0505  146.7608 H       1  UNL111      0.0344
     30 H         117.0924  150.3063  145.1419 H       1  UNL111      0.0344
     31 H         117.8543  153.5208  147.9762 H       1  UNL111      0.0760
     32 H         119.3912  154.3266  147.6083 H       1  UNL111      0.0760
     33 H         121.2252  153.4026  144.7489 H       1  UNL111      0.1146
     34 H         120.4522  151.1662  148.3648 H       1  UNL111      0.0922
     35 H         119.4049  156.5741  146.6223 H       1  UNL111      0.0661
     36 H         117.8340  157.4184  146.3718 H       1  UNL111      0.0661
     37 H         118.3169  156.1195  145.2557 H       1  UNL111      0.0661
     38 H         118.4604  156.2013  149.0054 H       1  UNL111      0.0661
     39 H         116.9096  155.2906  149.1394 H       1  UNL111      0.0661
     40 H         116.9088  156.9490  148.4717 H       1  UNL111      0.0661
     41 H         122.7007  151.6889  149.1586 H       1  UNL111      0.0912
     42 H         124.2313  153.0722  147.7990 H       1  UNL111      0.1103
     43 H         124.4580  154.7724  143.7345 H       1  UNL111      0.1069
     44 H         122.7200  154.9842  143.9779 H       1  UNL111      0.1069
     45 H         123.4055  153.3565  143.6006 H       1  UNL111      0.1069
@<TRIPOS>UNITY_ATOM_ATTR
3 1
charge 1
@<TRIPOS>BOND
     1     1     5    1
     2     2    16    1
     3     2    19    1
     4     3    10    1
     5     3    14    1
     6     3    15    1
     7     4     5    1
     8     4     6    1
     9     4    10    1
    10     5     7    1
    11     5    11    1
    12     6     8    1
    13     7     9    1
    14     8     9    1
    15    11    12   ar
    16    11    13   ar
    17    12    16   ar
    18    13    17   ar
    19    16    18   ar
    20    17    18   ar
    21     1    20    1
    22     3    21    1
    23     4    22    1
    24     6    23    1
    25     6    24    1
    26     7    25    1
    27     7    26    1
    28     8    27    1
    29     8    28    1
    30     9    29    1
    31     9    30    1
    32    10    31    1
    33    10    32    1
    34    12    33    1
    35    13    34    1
    36    14    35    1
    37    14    36    1
    38    14    37    1
    39    15    38    1
    40    15    39    1
    41    15    40    1
    42    17    41    1
    43    18    42    1
    44    19    43    1
    45    19    44    1
    46    19    45    1
@<TRIPOS>MOLECULE
667511
 45 46 0 0 0
SMALL
GASTEIGER

@<TRIPOS>ATOM
      1 O         119.2903  154.5010  144.9416 O.3     1  UNL111     -0.4393
      2 O         123.6651  152.4180  145.1440 O.3     1  UNL111     -0.5834
      3 N         117.1566  150.9535  145.9383 N.4     1  UNL111      0.4247
      4 C         118.0911  153.2509  146.6002 C.3     1  UNL111     -0.0172
      5 C         119.2846  154.2290  146.3497 C.3     1  UNL111      0.0415
      6 C         116.7392  153.9406  146.3085 C.3     1  UNL111     -0.0462
      7 C         119.0744  155.5745  147.0823 C.3     1  UNL111     -0.0256
      8 C         116.5842  155.2669  147.0465 C.3     1  UNL111     -0.0576
      9 C         117.7322  156.2182  146.7449 C.3     1  UNL111     -0.0530
     10 C         118.2634  151.9807  145.7348 C.3     1  UNL111     -0.0326
     11 C         120.6169  153.5958  146.7619 C.ar    1  UNL111     -0.0278
     12 C         121.5993  153.2601  145.8116 C.ar    1  UNL111     -0.0168
     13 C         120.8912  153.3052  148.1095 C.ar    1  UNL111     -0.0664
     14 C         117.1217  150.3693  147.3221 C.3     1  UNL111     -0.0463
     15 C         117.2502  149.8647  144.8983 C.3     1  UNL111     -0.0463
     16 C         122.8173  152.6789  146.1844 C.ar    1  UNL111      0.0355
     17 C         122.1002  152.7160  148.4861 C.ar    1  UNL111     -0.0678
     18 C         123.0624  152.4032  147.5260 C.ar    1  UNL111     -0.0311
     19 C         125.0073  152.0828  145.4821 C.3     1  UNL111      0.0293
     20 H         119.9091  155.2417  144.7905 H       1  UNL111      0.2418
     21 H         116.2575  151.4202  145.7694 H       1  UNL111      0.1292
     22 H         118.0953  152.9684  147.6602 H       1  UNL111      0.0678
     23 H         115.9090  153.2928  146.6105 H       1  UNL111      0.0385
     24 H         116.6298  154.1121  145.2302 H       1  UNL111      0.0385
     25 H         119.8717  156.2791  146.8119 H       1  UNL111      0.0490
     26 H         119.1266  155.4424  148.1697 H       1  UNL111      0.0490
     27 H         116.5363  155.0796  148.1264 H       1  UNL111      0.0329
     28 H         115.6349  155.7354  146.7627 H       1  UNL111      0.0329
     29 H         117.7077  156.5085  145.6878 H       1  UNL111      0.0344
     30 H         117.6105  157.1380  147.3283 H       1  UNL111      0.0344
     31 H         118.2430  152.2366  144.6694 H       1  UNL111      0.0760
     32 H         119.2005  151.4579  145.9514 H       1  UNL111      0.0760
     33 H         121.4396  153.4516  144.7517 H       1  UNL111      0.1146
     34 H         120.1744  153.5420  148.8933 H       1  UNL111      0.0922
     35 H         118.0981  149.9298  147.5420 H       1  UNL111      0.0661
     36 H         116.3366  149.6087  147.3516 H       1  UNL111      0.0661
     37 H         116.8761  151.1637  148.0295 H       1  UNL111      0.0661
     38 H         118.1988  149.3373  145.0296 H       1  UNL111      0.0661
     39 H         117.1907  150.3306  143.9112 H       1  UNL111      0.0661
     40 H         116.4022  149.1889  145.0380 H       1  UNL111      0.0661
     41 H         122.3003  152.5076  149.5353 H       1  UNL111      0.0912
     42 H         123.9898  151.9463  147.8570 H       1  UNL111      0.1103
     43 H         125.5825  152.0301  144.5527 H       1  UNL111      0.1069
     44 H         125.0549  151.0996  145.9609 H       1  UNL111      0.1069
     45 H         125.4634  152.8529  146.1135 H       1  UNL111      0.1069
@<TRIPOS>UNITY_ATOM_ATTR
3 1
charge 1
@<TRIPOS>BOND
     1     1     5    1
     2     2    16    1
     3     2    19    1
     4     3    10    1
     5     3    14    1
     6     3    15    1
     7     4     5    1
     8     4     6    1
     9     4    10    1
    10     5     7    1
    11     5    11    1
    12     6     8    1
    13     7     9    1
    14     8     9    1
    15    11    12   ar
    16    11    13   ar
    17    12    16   ar
    18    13    17   ar
    19    16    18   ar
    20    17    18   ar
    21     1    20    1
    22     3    21    1
    23     4    22    1
    24     6    23    1
    25     6    24    1
    26     7    25    1
    27     7    26    1
    28     8    27    1
    29     8    28    1
    30     9    29    1
    31     9    30    1
    32    10    31    1
    33    10    32    1
    34    12    33    1
    35    13    34    1
    36    14    35    1
    37    14    36    1
    38    14    37    1
    39    15    38    1
    40    15    39    1
    41    15    40    1
    42    17    41    1
    43    18    42    1
    44    19    43    1
    45    19    44    1
    46    19    45    1
@<TRIPOS>MOLECULE
22908336
 42 43 0 0 0
SMALL
GASTEIGER

@<TRIPOS>ATOM
      1 O         116.4788  154.3310  145.2088 O.3     1  UNL111     -0.5833
      2 N         122.3644  155.2539  146.4830 N.4     1  UNL111      0.4245
      3 C         121.4583  152.9638  145.8323 C.3     1  UNL111     -0.0252
      4 C         122.7107  152.3467  145.1673 C.3     1  UNL111     -0.0474
      5 C         123.2612  151.1574  145.9499 C.3     1  UNL111     -0.0544
      6 C         120.4986  151.8955  146.3370 C.2     1  UNL111     -0.0654
      7 C         121.8261  153.9210  146.9923 C.3     1  UNL111     -0.0348
      8 C         122.2079  150.0627  146.1050 C.3     1  UNL111     -0.0447
      9 C         120.8462  150.5988  146.4356 C.2     1  UNL111     -0.0994
     10 C         119.1210  152.3138  146.6841 C.ar    1  UNL111     -0.0378
     11 C         118.3646  153.1063  145.8098 C.ar    1  UNL111     -0.0192
     12 C         121.2685  156.1744  146.0063 C.3     1  UNL111     -0.0462
     13 C         123.2170  155.9321  147.5222 C.3     1  UNL111     -0.0462
     14 C         118.5616  151.9648  147.9205 C.ar    1  UNL111     -0.0688
     15 C         117.0834  153.5507  146.1555 C.ar    1  UNL111      0.0354
     16 C         117.2829  152.4030  148.2702 C.ar    1  UNL111     -0.0679
     17 C         116.5461  153.1996  147.3918 C.ar    1  UNL111     -0.0309
     18 C         115.0959  154.6127  145.4026 C.3     1  UNL111      0.0294
     19 H         122.9775  155.0704  145.6793 H       1  UNL111      0.1292
     20 H         120.9619  153.5349  145.0410 H       1  UNL111      0.0654
     21 H         123.4981  153.0964  145.0364 H       1  UNL111      0.0387
     22 H         122.4425  152.0052  144.1581 H       1  UNL111      0.0387
     23 H         123.5997  151.4867  146.9396 H       1  UNL111      0.0346
     24 H         124.1407  150.7487  145.4391 H       1  UNL111      0.0346
     25 H         120.9745  154.1635  147.6378 H       1  UNL111      0.0760
     26 H         122.6065  153.4772  147.6205 H       1  UNL111      0.0760
     27 H         122.5269  149.3678  146.8901 H       1  UNL111      0.0425
     28 H         122.1343  149.4852  145.1758 H       1  UNL111      0.0425
     29 H         120.1163  149.8514  146.7470 H       1  UNL111      0.0778
     30 H         118.7435  153.3648  144.8241 H       1  UNL111      0.1147
     31 H         120.6007  156.3873  146.8453 H       1  UNL111      0.0661
     32 H         120.7308  155.6882  145.1905 H       1  UNL111      0.0661
     33 H         121.7361  157.0918  145.6386 H       1  UNL111      0.0661
     34 H         122.6014  156.1294  148.4039 H       1  UNL111      0.0661
     35 H         123.6004  156.8619  147.0937 H       1  UNL111      0.0661
     36 H         124.0500  155.2667  147.7639 H       1  UNL111      0.0661
     37 H         119.1138  151.3498  148.6285 H       1  UNL111      0.0924
     38 H         116.8568  152.1210  149.2309 H       1  UNL111      0.0914
     39 H         115.5577  153.5244  147.7017 H       1  UNL111      0.1103
     40 H         114.7373  155.1474  144.5178 H       1  UNL111      0.1069
     41 H         114.9485  155.2652  146.2692 H       1  UNL111      0.1069
     42 H         114.5113  153.6913  145.4962 H       1  UNL111      0.1069
@<TRIPOS>UNITY_ATOM_ATTR
2 1
charge 1
@<TRIPOS>BOND
     1     1    15    1
     2     1    18    1
     3     2     7    1
     4     2    12    1
     5     2    13    1
     6     3     4    1
     7     3     6    1
     8     3     7    1
     9     4     5    1
    10     5     8    1
    11     6     9    2
    12     6    10    1
    13     8     9    1
    14    10    11   ar
    15    10    14   ar
    16    11    15   ar
    17    14    16   ar
    18    15    17   ar
    19    16    17   ar
    20     2    19    1
    21     3    20    1
    22     4    21    1
    23     4    22    1
    24     5    23    1
    25     5    24    1
    26     7    25    1
    27     7    26    1
    28     8    27    1
    29     8    28    1
    30     9    29    1
    31    11    30    1
    32    12    31    1
    33    12    32    1
    34    12    33    1
    35    13    34    1
    36    13    35    1
    37    13    36    1
    38    14    37    1
    39    16    38    1
    40    17    39    1
    41    18    40    1
    42    18    41    1
    43    18    42    1
@<TRIPOS>MOLECULE
12149038
 42 43 0 0 0
SMALL
GASTEIGER

@<TRIPOS>ATOM
      1 O         118.2833  153.9146  148.1302 O.3     1  UNL111     -0.4393
      2 O         123.2381  152.9360  144.8014 O.3     1  UNL111     -0.5834
      3 N         117.5787  150.4067  145.8448 N.4     1  UNL111      0.4310
      4 C         118.1543  152.8422  145.9976 C.3     1  UNL111     -0.0171
      5 C         118.9230  153.9045  146.8466 C.3     1  UNL111      0.0414
      6 C         118.7960  155.3162  146.2304 C.3     1  UNL111     -0.0256
      7 C         116.7017  153.2951  145.7250 C.3     1  UNL111     -0.0462
      8 C         117.3436  155.7197  145.9900 C.3     1  UNL111     -0.0530
      9 C         116.6300  154.6944  145.1215 C.3     1  UNL111     -0.0576
     10 C         118.1766  151.4768  146.7144 C.3     1  UNL111     -0.0281
     11 C         120.3982  153.5307  147.0098 C.ar    1  UNL111     -0.0278
     12 C         121.2292  153.3969  145.8806 C.ar    1  UNL111     -0.0168
     13 C         120.9718  153.2941  148.2691 C.ar    1  UNL111     -0.0664
     14 C         122.5775  153.0384  145.9938 C.ar    1  UNL111      0.0355
     15 C         122.3176  152.9390  148.3887 C.ar    1  UNL111     -0.0678
     16 C         117.6705  149.0416  146.4305 C.3     1  UNL111     -0.0417
     17 C         123.1192  152.8084  147.2543 C.ar    1  UNL111     -0.0311
     18 C         124.6473  152.7398  144.8637 C.3     1  UNL111      0.0293
     19 H         118.5341  154.7469  148.5755 H       1  UNL111      0.2418
     20 H         118.0467  150.4084  144.9289 H       1  UNL111      0.1333
     21 H         116.5881  150.6161  145.6692 H       1  UNL111      0.1333
     22 H         118.6470  152.7323  145.0220 H       1  UNL111      0.0677
     23 H         119.3333  155.3741  145.2756 H       1  UNL111      0.0490
     24 H         119.2544  156.0606  146.8945 H       1  UNL111      0.0490
     25 H         116.1195  153.2722  146.6549 H       1  UNL111      0.0385
     26 H         116.2120  152.6035  145.0305 H       1  UNL111      0.0385
     27 H         117.3121  156.7005  145.5020 H       1  UNL111      0.0344
     28 H         116.8189  155.8255  146.9471 H       1  UNL111      0.0344
     29 H         115.5810  154.9860  144.9958 H       1  UNL111      0.0329
     30 H         117.0796  154.6837  144.1209 H       1  UNL111      0.0329
     31 H         119.1974  151.1485  146.9298 H       1  UNL111      0.0759
     32 H         117.5944  151.4864  147.6419 H       1  UNL111      0.0759
     33 H         120.8425  153.5863  144.8806 H       1  UNL111      0.1146
     34 H         120.3861  153.3817  149.1822 H       1  UNL111      0.0922
     35 H         122.7470  152.7672  149.3741 H       1  UNL111      0.0912
     36 H         118.7261  148.7929  146.5615 H       1  UNL111      0.0661
     37 H         117.1987  148.3526  145.7265 H       1  UNL111      0.0661
     38 H         117.1376  149.0403  147.3843 H       1  UNL111      0.0661
     39 H         124.1594  152.5298  147.3910 H       1  UNL111      0.1103
     40 H         125.0319  152.7547  143.8394 H       1  UNL111      0.1069
     41 H         124.8874  151.7629  145.2958 H       1  UNL111      0.1069
     42 H         125.1366  153.5487  145.4165 H       1  UNL111      0.1069
@<TRIPOS>UNITY_ATOM_ATTR
3 1
charge 1
@<TRIPOS>BOND
     1     1     5    1
     2     2    14    1
     3     2    18    1
     4     3    10    1
     5     3    16    1
     6     4     5    1
     7     4     7    1
     8     4    10    1
     9     5     6    1
    10     5    11    1
    11     6     8    1
    12     7     9    1
    13     8     9    1
    14    11    12   ar
    15    11    13   ar
    16    12    14   ar
    17    13    15   ar
    18    14    17   ar
    19    15    17   ar
    20     1    19    1
    21     3    20    1
    22     3    21    1
    23     4    22    1
    24     6    23    1
    25     6    24    1
    26     7    25    1
    27     7    26    1
    28     8    27    1
    29     8    28    1
    30     9    29    1
    31     9    30    1
    32    10    31    1
    33    10    32    1
    34    12    33    1
    35    13    34    1
    36    15    35    1
    37    16    36    1
    38    16    37    1
    39    16    38    1
    40    17    39    1
    41    18    40    1
    42    18    41    1
    43    18    42    1
@<TRIPOS>MOLECULE
40424868
 39 40 0 0 0
SMALL
GASTEIGER

@<TRIPOS>ATOM
      1 O         118.8304  153.9086  144.6281 O.3     1  UNL111     -0.4393
      2 O         123.4781  152.9168  148.4575 O.3     1  UNL111     -0.5645
      3 N         117.5952  150.5616  146.9314 N.4     1  UNL111      0.4310
      4 C         118.3645  152.9465  146.7700 C.3     1  UNL111     -0.0171
      5 C         119.2994  153.9203  145.9830 C.3     1  UNL111      0.0414
      6 C         116.9206  153.4945  146.8365 C.3     1  UNL111     -0.0462
      7 C         119.1809  155.3685  146.5112 C.3     1  UNL111     -0.0256
      8 C         116.8600  154.9263  147.3595 C.3     1  UNL111     -0.0576
      9 C         117.7367  155.8622  146.5408 C.3     1  UNL111     -0.0530
     10 C         118.3879  151.5469  146.1197 C.3     1  UNL111     -0.0281
     11 C         120.7540  153.4415  146.0296 C.ar    1  UNL111     -0.0280
     12 C         121.4684  153.4296  147.2443 C.ar    1  UNL111     -0.0178
     13 C         121.4058  152.9557  144.8793 C.ar    1  UNL111     -0.0665
     14 C         122.7736  152.9432  147.2920 C.ar    1  UNL111      0.0354
     15 C         122.7141  152.4681  144.9414 C.ar    1  UNL111     -0.0681
     16 C         117.6938  149.1625  146.4311 C.3     1  UNL111     -0.0417
     17 C         123.3966  152.4558  146.1530 C.ar    1  UNL111     -0.0321
     18 H         119.2492  154.6616  144.1674 H       1  UNL111      0.2418
     19 H         123.0718  153.5239  149.0977 H       1  UNL111      0.3342
     20 H         116.6039  150.8331  146.9336 H       1  UNL111      0.1333
     21 H         117.9105  150.5867  147.9097 H       1  UNL111      0.1333
     22 H         118.7282  152.8570  147.8030 H       1  UNL111      0.0677
     23 H         116.3076  152.8694  147.4953 H       1  UNL111      0.0385
     24 H         116.4572  153.4536  145.8426 H       1  UNL111      0.0385
     25 H         119.7650  156.0493  145.8784 H       1  UNL111      0.0490
     26 H         119.5908  155.4522  147.5248 H       1  UNL111      0.0490
     27 H         117.1807  154.9455  148.4084 H       1  UNL111      0.0329
     28 H         115.8233  155.2810  147.3372 H       1  UNL111      0.0329
     29 H         117.3443  155.9424  145.5201 H       1  UNL111      0.0344
     30 H         117.7029  156.8690  146.9727 H       1  UNL111      0.0344
     31 H         117.9486  151.5485  145.1165 H       1  UNL111      0.0759
     32 H         119.4024  151.1415  146.0717 H       1  UNL111      0.0759
     33 H         121.0079  153.7908  148.1596 H       1  UNL111      0.1143
     34 H         120.9062  152.9400  143.9120 H       1  UNL111      0.0922
     35 H         123.2042  152.1009  144.0422 H       1  UNL111      0.0912
     36 H         117.3194  149.1373  145.4051 H       1  UNL111      0.0661
     37 H         117.0751  148.5399  147.0812 H       1  UNL111      0.0661
     38 H         118.7395  148.8507  146.4836 H       1  UNL111      0.0661
     39 H         124.4157  152.0810  146.2060 H       1  UNL111      0.1100
@<TRIPOS>UNITY_ATOM_ATTR
3 1
charge 1
@<TRIPOS>BOND
     1     1     5    1
     2     2    14    1
     3     3    10    1
     4     3    16    1
     5     4     5    1
     6     4     6    1
     7     4    10    1
     8     5     7    1
     9     5    11    1
    10     6     8    1
    11     7     9    1
    12     8     9    1
    13    11    12   ar
    14    11    13   ar
    15    12    14   ar
    16    13    15   ar
    17    14    17   ar
    18    15    17   ar
    19     1    18    1
    20     2    19    1
    21     3    20    1
    22     3    21    1
    23     4    22    1
    24     6    23    1
    25     6    24    1
    26     7    25    1
    27     7    26    1
    28     8    27    1
    29     8    28    1
    30     9    29    1
    31     9    30    1
    32    10    31    1
    33    10    32    1
    34    12    33    1
    35    13    34    1
    36    15    35    1
    37    16    36    1
    38    16    37    1
    39    16    38    1
    40    17    39    1
@<TRIPOS>MOLECULE
25181825
 26 27 0 0 0
SMALL
GASTEIGER

@<TRIPOS>ATOM
      1 O         118.6089  153.1670  148.2943 O.3     1  UNL111     -0.3062
      2 O         122.9496  151.5016  145.2136 O.2     1  UNL111     -0.5049
      3 N         117.4120  150.7706  145.7742 N.4     1  UNL111      0.4334
      4 C         118.2449  153.5287  145.9879 C.3     1  UNL111      0.0749
      5 C         119.0775  153.8930  147.2962 C.3     1  UNL111      0.1361
      6 C         117.6330  154.6295  145.2865 C.3     1  UNL111      0.0332
      7 C         118.7937  155.3334  147.5598 C.3     1  UNL111      0.0652
      8 C         117.4440  156.1224  145.5650 C.3     1  UNL111      0.0103
      9 C         118.0933  156.5206  146.8828 C.3     1  UNL111      0.0192
     10 C         117.8286  152.1841  145.7789 C.3     1  UNL111      0.0409
     11 C         120.5678  153.6265  147.1366 C.2     1  UNL111      0.0331
     12 C         121.0479  152.6786  146.2227 C.2     1  UNL111      0.0582
     13 C         121.5102  154.2929  147.9352 C.2     1  UNL111      0.0093
     14 C         117.1943  150.3417  147.1992 C.3     1  UNL111     -0.0385
     15 C         118.4100  149.9245  145.0656 C.3     1  UNL111     -0.0385
     16 C         122.4108  152.4076  146.0921 C.2     1  UNL111      0.0959
     17 C         122.8741  154.0359  147.8129 C.2     1  UNL111      0.0177
     18 C         123.3220  153.0953  146.8907 C.2     1  UNL111      0.0549
     19 C         122.0248  150.7574  144.4613 C.3     1  UNL111      0.2570
     20 H         116.5123  150.7500  145.2849 H       1  UNL111      0.1420
     21 H         118.1494  150.3555  147.7319 H       1  UNL111      0.0679
     22 H         116.7919  149.3250  147.1758 H       1  UNL111      0.0679
     23 H         116.4610  151.0112  147.6585 H       1  UNL111      0.0679
     24 H         119.3499  149.9365  145.6232 H       1  UNL111      0.0679
     25 H         118.5434  150.3168  144.0533 H       1  UNL111      0.0679
     26 H         118.0109  148.9076  145.0158 H       1  UNL111      0.0679
@<TRIPOS>UNITY_ATOM_ATTR
3 1
charge 1
@<TRIPOS>BOND
     1     1     5    1
     2     2    16    1
     3     2    19    1
     4     3    10    1
     5     3    14    1
     6     3    15    1
     7     4     5    1
     8     4     6    1
     9     4    10    1
    10     5     7    1
    11     5    11    1
    12     6     8    1
    13     7     9    1
    14     8     9    1
    15    11    12    2
    16    11    13    1
    17    12    16    1
    18    13    17    2
    19    16    18    2
    20    17    18    1
    21     3    20    1
    22    14    21    1
    23    14    22    1
    24    14    23    1
    25    15    24    1
    26    15    25    1
    27    15    26    1
@<TRIPOS>MOLECULE
9861699
 45 46 0 0 0
SMALL
GASTEIGER

@<TRIPOS>ATOM
      1 O         120.2356  153.7589  144.4781 O.3     1  UNL1111    -0.4393
      2 O         123.5556  151.1539  146.8548 O.co2   1  UNL1111    -0.7596
      3 O         115.6673  152.0157  145.6352 O.2     1  UNL1111    -0.5834
      4 N         122.2316  150.9414  147.1264 N.3     1  UNL1111     0.3992
      5 C         121.4271  153.3883  146.5680 C.3     1  UNL1111    -0.0199
      6 C         120.2368  154.1244  145.8677 C.3     1  UNL1111     0.0413
      7 C         122.7868  153.9664  146.1205 C.3     1  UNL1111    -0.0464
      8 C         120.3724  155.6639  145.9436 C.3     1  UNL1111    -0.0256
      9 C         121.3414  151.8646  146.2917 C.3     1  UNL1111    -0.0512
     10 C         122.8565  155.4844  146.2551 C.3     1  UNL1111    -0.0576
     11 C         121.7379  156.1739  145.4916 C.3     1  UNL1111    -0.0530
     12 C         118.8874  153.7114  146.4837 C.3     1  UNL1111    -0.0278
     13 C         121.9071  149.5141  146.7605 C.3     1  UNL1111    -0.0648
     14 C         121.9796  151.1260  148.5973 C.3     1  UNL1111    -0.0648
     15 C         117.8965  153.0649  145.7154 C.3     1  UNL1111    -0.0168
     16 C         118.6138  153.9511  147.8431 C.3     1  UNL1111    -0.0664
     17 C         116.6844  152.6616  146.2833 C.3     1  UNL1111     0.0355
     18 C         117.4019  153.5599  148.4122 C.3     1  UNL1111    -0.0678
     19 C         116.4443  152.9160  147.6331 C.3     1  UNL1111    -0.0311
     20 C         115.8769  151.6996  144.2644 C.3     1  UNL1111     0.0293
     21 H         121.0653  154.0654  144.0761 H       1  UNL1111     0.2418
     22 H         121.3526  153.5662  147.6464 H       1  UNL1111     0.0676
     23 H         123.0004  153.6815  145.0832 H       1  UNL1111     0.0385
     24 H         123.5921  153.5515  146.7342 H       1  UNL1111     0.0385
     25 H         120.2066  156.0195  146.9680 H       1  UNL1111     0.0490
     26 H         119.6046  156.1373  145.3176 H       1  UNL1111     0.0490
     27 H         120.3287  151.4913  146.4765 H       1  UNL1111     0.0727
     28 H         121.6045  151.6454  145.2493 H       1  UNL1111     0.0727
     29 H         123.8257  155.8402  145.8871 H       1  UNL1111     0.0329
     30 H         122.8002  155.7587  147.3159 H       1  UNL1111     0.0329
     31 H         121.7949  157.2561  145.6568 H       1  UNL1111     0.0344
     32 H         121.8676  156.0170  144.4147 H       1  UNL1111     0.0344
     33 H         122.0839  149.3986  145.6876 H       1  UNL1111     0.0628
     34 H         120.8616  149.3233  147.0158 H       1  UNL1111     0.0628
     35 H         122.5785  148.8643  147.3288 H       1  UNL1111     0.0628
     36 H         122.3629  152.1068  148.8862 H       1  UNL1111     0.0628
     37 H         122.5338  150.3466  149.1280 H       1  UNL1111     0.0628
     38 H         120.9049  151.0393  148.7737 H       1  UNL1111     0.0628
     39 H         118.0945  152.8804  144.6640 H       1  UNL1111     0.1146
     40 H         119.3413  154.4529  148.4777 H       1  UNL1111     0.0922
     41 H         117.2015  153.7585  149.4618 H       1  UNL1111     0.0912
     42 H         115.5005  152.6112  148.0787 H       1  UNL1111     0.1103
     43 H         114.9876  151.1739  143.9034 H       1  UNL1111     0.1069
     44 H         116.7327  151.0276  144.1402 H       1  UNL1111     0.1069
     45 H         115.9940  152.6072  143.6633 H       1  UNL1111     0.1069
@<TRIPOS>UNITY_ATOM_ATTR
2 1
charge -1
4 1
charge 1
@<TRIPOS>BOND
     1     1     6    1
     2     2     4    1
     3     3    17    1
     4     3    20    1
     5     4     9    1
     6     4    13    1
     7     4    14    1
     8     5     6    1
     9     5     7    1
    10     5     9    1
    11     6     8    1
    12     6    12    1
    13     7    10    1
    14     8    11    1
    15    10    11    1
    16    12    15   ar
    17    12    16   ar
    18    15    17   ar
    19    16    18   ar
    20    17    19   ar
    21    18    19   ar
    22     1    21    1
    23     5    22    1
    24     7    23    1
    25     7    24    1
    26     8    25    1
    27     8    26    1
    28     9    27    1
    29     9    28    1
    30    10    29    1
    31    10    30    1
    32    11    31    1
    33    11    32    1
    34    13    33    1
    35    13    34    1
    36    13    35    1
    37    14    36    1
    38    14    37    1
    39    14    38    1
    40    15    39    1
    41    16    40    1
    42    18    41    1
    43    19    42    1
    44    20    43    1
    45    20    44    1
    46    20    45    1
@<TRIPOS>MOLECULE
15645279
 42 43 0 0 0
SMALL
GASTEIGER

@<TRIPOS>ATOM
      1 O         119.1499  154.6414  144.9016 O.3     1  UNL111     -0.4393
      2 O         123.4572  152.3390  148.5613 O.3     1  UNL111     -0.5645
      3 N         117.5900  150.8110  145.9589 N.4     1  UNL111      0.4247
      4 C         118.4858  153.1199  146.6353 C.3     1  UNL111     -0.0172
      5 C         119.5111  154.2286  146.2266 C.3     1  UNL111      0.0414
      6 C         117.0609  153.7031  146.7655 C.3     1  UNL111     -0.0462
      7 C         119.4011  155.4652  147.1485 C.3     1  UNL111     -0.0256
      8 C         117.0074  154.9255  147.6768 C.3     1  UNL111     -0.0576
      9 C         117.9765  156.0083  147.2265 C.3     1  UNL111     -0.0530
     10 C         118.5178  151.9661  145.6052 C.3     1  UNL111     -0.0326
     11 C         120.9407  153.6763  146.2231 C.ar    1  UNL111     -0.0280
     12 C         121.5634  153.2843  147.4249 C.ar    1  UNL111     -0.0178
     13 C         121.6555  153.4942  145.0230 C.ar    1  UNL111     -0.0665
     14 C         117.9867  150.0820  147.2123 C.3     1  UNL111     -0.0463
     15 C         117.4738  149.8536  144.7984 C.3     1  UNL111     -0.0463
     16 C         122.8420  152.7300  147.4105 C.ar    1  UNL111      0.0354
     17 C         122.9360  152.9343  145.0222 C.ar    1  UNL111     -0.0681
     18 C         123.5273  152.5449  146.2193 C.ar    1  UNL111     -0.0321
     19 H         119.6383  155.4653  144.7095 H       1  UNL111      0.2418
     20 H         123.0367  152.7776  149.3191 H       1  UNL111      0.3342
     21 H         116.6465  151.1912  146.0996 H       1  UNL111      0.1292
     22 H         118.7746  152.7329  147.6203 H       1  UNL111      0.0678
     23 H         116.3784  152.9509  147.1758 H       1  UNL111      0.0385
     24 H         116.6738  153.9739  145.7750 H       1  UNL111      0.0385
     25 H         120.0562  156.2669  146.7834 H       1  UNL111      0.0490
     26 H         119.7318  155.2281  148.1667 H       1  UNL111      0.0490
     27 H         117.2446  154.6244  148.7047 H       1  UNL111      0.0329
     28 H         115.9880  155.3278  147.6907 H       1  UNL111      0.0329
     29 H         117.6684  156.4016  146.2505 H       1  UNL111      0.0344
     30 H         117.9429  156.8474  147.9307 H       1  UNL111      0.0344
     31 H         118.1934  152.3233  144.6212 H       1  UNL111      0.0760
     32 H         119.5152  151.5267  145.5061 H       1  UNL111      0.0760
     33 H         121.0506  153.3994  148.3757 H       1  UNL111      0.1143
     34 H         121.2265  153.7768  144.0631 H       1  UNL111      0.0922
     35 H         119.0162  149.7310  147.1032 H       1  UNL111      0.0661
     36 H         117.3008  149.2415  147.3494 H       1  UNL111      0.0661
     37 H         117.8882  150.7653  148.0579 H       1  UNL111      0.0661
     38 H         118.4592  149.4228  144.6015 H       1  UNL111      0.0661
     39 H         117.1070  150.4113  143.9326 H       1  UNL111      0.0661
     40 H         116.7525  149.0781  145.0693 H       1  UNL111      0.0661
     41 H         123.4755  152.8045  144.0864 H       1  UNL111      0.0912
     42 H         124.5245  152.1120  146.2244 H       1  UNL111      0.1100
@<TRIPOS>UNITY_ATOM_ATTR
3 1
charge 1
@<TRIPOS>BOND
     1     1     5    1
     2     2    16    1
     3     3    10    1
     4     3    14    1
     5     3    15    1
     6     4     5    1
     7     4     6    1
     8     4    10    1
     9     5     7    1
    10     5    11    1
    11     6     8    1
    12     7     9    1
    13     8     9    1
    14    11    12   ar
    15    11    13   ar
    16    12    16   ar
    17    13    17   ar
    18    16    18   ar
    19    17    18   ar
    20     1    19    1
    21     2    20    1
    22     3    21    1
    23     4    22    1
    24     6    23    1
    25     6    24    1
    26     7    25    1
    27     7    26    1
    28     8    27    1
    29     8    28    1
    30     9    29    1
    31     9    30    1
    32    10    31    1
    33    10    32    1
    34    12    33    1
    35    13    34    1
    36    14    35    1
    37    14    36    1
    38    14    37    1
    39    15    38    1
    40    15    39    1
    41    15    40    1
    42    17    41    1
    43    18    42    1
@<TRIPOS>MOLECULE
3056665
 42 43 0 0 0
SMALL
GASTEIGER

@<TRIPOS>ATOM
      1 O         116.4554  153.6603  147.8047 O.3     1  UNL111     -0.5833
      2 N         121.6937  155.5503  146.4028 N.4     1  UNL111      0.4261
      3 C         123.1804  152.7555  146.3533 C.3     1  UNL111     -0.0358
      4 C         121.7115  153.0375  146.0943 C.2     1  UNL111     -0.0866
      5 C         123.5042  151.2843  146.6145 C.3     1  UNL111     -0.0541
      6 C         122.4905  150.6677  147.5659 C.3     1  UNL111     -0.0542
      7 C         121.0822  150.7528  146.9801 C.3     1  UNL111     -0.0332
      8 C         120.7722  152.0996  146.3624 C.2     1  UNL111     -0.0633
      9 C         121.4187  154.3857  145.4777 C.3     1  UNL111     -0.0215
     10 C         119.3458  152.3155  146.0712 C.ar    1  UNL111     -0.0375
     11 C         118.4993  152.8488  147.0493 C.ar    1  UNL111     -0.0192
     12 C         118.8312  152.0158  144.8067 C.ar    1  UNL111     -0.0688
     13 C         120.7730  155.5794  147.5904 C.3     1  UNL111     -0.0451
     14 C         121.6649  156.8557  145.6614 C.3     1  UNL111     -0.0451
     15 C         117.1548  153.1068  146.7686 C.ar    1  UNL111      0.0354
     16 C         117.4872  152.2623  144.5256 C.ar    1  UNL111     -0.0679
     17 C         116.6517  152.8134  145.5015 C.ar    1  UNL111     -0.0309
     18 C         115.0445  153.7665  147.6396 C.3     1  UNL111      0.0294
     19 H         122.6464  155.4297  146.7629 H       1  UNL111      0.1312
     20 H         123.4984  153.3478  147.2202 H       1  UNL111      0.0470
     21 H         123.7801  153.0904  145.4984 H       1  UNL111      0.0470
     22 H         124.5141  151.1979  147.0311 H       1  UNL111      0.0347
     23 H         123.5021  150.7316  145.6664 H       1  UNL111      0.0347
     24 H         122.5235  151.1924  148.5292 H       1  UNL111      0.0346
     25 H         122.7457  149.6205  147.7636 H       1  UNL111      0.0346
     26 H         120.3644  150.5193  147.7762 H       1  UNL111      0.0466
     27 H         120.9675  149.9805  146.2084 H       1  UNL111      0.0466
     28 H         122.0633  154.5189  144.6001 H       1  UNL111      0.0851
     29 H         120.3866  154.5010  145.1330 H       1  UNL111      0.0851
     30 H         118.8742  153.0553  148.0488 H       1  UNL111      0.1147
     31 H         119.4645  151.5791  144.0373 H       1  UNL111      0.0924
     32 H         119.7432  155.6670  147.2351 H       1  UNL111      0.0665
     33 H         121.0433  156.4424  148.2054 H       1  UNL111      0.0665
     34 H         120.9220  154.6661  148.1706 H       1  UNL111      0.0665
     35 H         120.6594  157.0092  145.2603 H       1  UNL111      0.0665
     36 H         122.4050  156.8085  144.8582 H       1  UNL111      0.0665
     37 H         121.9324  157.6511  146.3622 H       1  UNL111      0.0665
     38 H         117.0842  152.0194  143.5443 H       1  UNL111      0.0914
     39 H         115.6131  152.9944  145.2412 H       1  UNL111      0.1103
     40 H         114.6263  154.1442  148.5776 H       1  UNL111      0.1069
     41 H         114.5930  152.7886  147.4417 H       1  UNL111      0.1069
     42 H         114.7963  154.4844  146.8511 H       1  UNL111      0.1069
@<TRIPOS>UNITY_ATOM_ATTR
2 1
charge 1
@<TRIPOS>BOND
     1     1    15    1
     2     1    18    1
     3     2     9    1
     4     2    13    1
     5     2    14    1
     6     3     4    1
     7     3     5    1
     8     4     8    2
     9     4     9    1
    10     5     6    1
    11     6     7    1
    12     7     8    1
    13     8    10    1
    14    10    11   ar
    15    10    12   ar
    16    11    15   ar
    17    12    16   ar
    18    15    17   ar
    19    16    17   ar
    20     2    19    1
    21     3    20    1
    22     3    21    1
    23     5    22    1
    24     5    23    1
    25     6    24    1
    26     6    25    1
    27     7    26    1
    28     7    27    1
    29     9    28    1
    30     9    29    1
    31    11    30    1
    32    12    31    1
    33    13    32    1
    34    13    33    1
    35    13    34    1
    36    14    35    1
    37    14    36    1
    38    14    37    1
    39    16    38    1
    40    17    39    1
    41    18    40    1
    42    18    41    1
    43    18    42    1
@<TRIPOS>MOLECULE
10220107
 36 37 0 0 0
SMALL
GASTEIGER

@<TRIPOS>ATOM
      1 O         118.6144  153.5075  148.1647 O.3     1  UNL111     -0.4393
      2 O         123.3692  153.2752  144.3461 O.3     1  UNL111     -0.5645
      3 N         118.0340  149.9159  146.0140 N.4     1  UNL111      0.4370
      4 C         119.0743  153.5595  146.8079 C.3     1  UNL111      0.0413
      5 C         118.3423  152.3972  146.0640 C.3     1  UNL111     -0.0169
      6 C         118.6829  154.9380  146.2280 C.3     1  UNL111     -0.0256
      7 C         116.8205  152.6574  145.9864 C.3     1  UNL111     -0.0463
      8 C         117.1710  155.1463  146.1880 C.3     1  UNL111     -0.0530
      9 C         116.4895  154.0304  145.4100 C.3     1  UNL111     -0.0576
     10 C         118.6288  151.0548  146.7652 C.3     1  UNL111     -0.0236
     11 C         120.5928  153.3617  146.7696 C.ar    1  UNL111     -0.0280
     12 C         121.2981  153.4436  145.5523 C.ar    1  UNL111     -0.0178
     13 C         121.3228  153.0452  147.9320 C.ar    1  UNL111     -0.0665
     14 C         122.6712  153.2084  145.5138 C.ar    1  UNL111      0.0354
     15 C         122.6992  152.8090  147.8791 C.ar    1  UNL111     -0.0681
     16 C         123.3732  152.8839  146.6649 C.ar    1  UNL111     -0.0321
     17 H         118.8833  154.3418  148.5967 H       1  UNL111      0.2418
     18 H         122.8613  153.7812  143.6908 H       1  UNL111      0.3342
     19 H         118.3180  149.0236  146.4401 H       1  UNL111      0.1375
     20 H         118.3451  149.8979  145.0347 H       1  UNL111      0.1375
     21 H         117.0067  149.9393  146.0289 H       1  UNL111      0.1375
     22 H         118.7168  152.3389  145.0325 H       1  UNL111      0.0676
     23 H         119.0710  155.0610  145.2099 H       1  UNL111      0.0490
     24 H         119.1256  155.7404  146.8326 H       1  UNL111      0.0490
     25 H         116.3727  152.5679  146.9843 H       1  UNL111      0.0385
     26 H         116.3386  151.9009  145.3569 H       1  UNL111      0.0385
     27 H         116.9469  156.1112  145.7191 H       1  UNL111      0.0344
     28 H         116.7691  155.1888  147.2073 H       1  UNL111      0.0344
     29 H         115.4042  154.1822  145.4248 H       1  UNL111      0.0329
     30 H         116.8024  154.0703  144.3593 H       1  UNL111      0.0329
     31 H         119.6981  150.8345  146.8145 H       1  UNL111      0.0759
     32 H         118.2066  151.0071  147.7736 H       1  UNL111      0.0759
     33 H         120.7797  153.6819  144.6278 H       1  UNL111      0.1143
     34 H         120.8345  152.9694  148.9022 H       1  UNL111      0.0922
     35 H         123.2486  152.5701  148.7872 H       1  UNL111      0.0912
     36 H         124.4444  152.7043  146.6190 H       1  UNL111      0.1100
@<TRIPOS>UNITY_ATOM_ATTR
3 1
charge 1
@<TRIPOS>BOND
     1     1     4    1
     2     2    14    1
     3     3    10    1
     4     4     5    1
     5     4     6    1
     6     4    11    1
     7     5     7    1
     8     5    10    1
     9     6     8    1
    10     7     9    1
    11     8     9    1
    12    11    12   ar
    13    11    13   ar
    14    12    14   ar
    15    13    15   ar
    16    14    16   ar
    17    15    16   ar
    18     1    17    1
    19     2    18    1
    20     3    19    1
    21     3    20    1
    22     3    21    1
    23     5    22    1
    24     6    23    1
    25     6    24    1
    26     7    25    1
    27     7    26    1
    28     8    27    1
    29     8    28    1
    30     9    29    1
    31     9    30    1
    32    10    31    1
    33    10    32    1
    34    12    33    1
    35    13    34    1
    36    15    35    1
    37    16    36    1
@<TRIPOS>MOLECULE
49849457
 21 22 0 0 0
SMALL
GASTEIGER

@<TRIPOS>ATOM
      1 O         118.5550  153.3814  148.4635 O.3     1  UNL111     -0.3064
      2 O         122.4786  152.0068  144.1622 O.co2   1  UNL111     -0.8034
      3 N         118.0609  150.3616  145.3603 N.3     1  UNL111      0.4678
      4 C         117.8996  153.1218  146.2133 C.3     1  UNL111      0.0848
      5 C         118.9957  153.6753  147.2462 C.3     1  UNL111      0.1346
      6 C         117.1425  154.1241  145.4993 C.3     1  UNL111      0.0355
      7 C         118.9681  155.1682  147.1145 C.3     1  UNL111      0.0650
      8 C         117.1476  155.6525  145.4215 C.3     1  UNL111      0.0105
      9 C         118.2014  156.2510  146.3418 C.3     1  UNL111      0.0192
     10 C         117.8899  151.7545  145.7980 C.3     1  UNL111      0.0658
     11 C         120.4115  153.1486  146.9919 C.2     1  UNL111      0.0097
     12 C         120.8495  152.8166  145.6868 C.2     1  UNL111     -0.0351
     13 C         121.3607  153.0570  148.0123 C.2     1  UNL111      0.0006
     14 C         122.1354  152.3389  145.3469 C.2     1  UNL111     -0.0971
     15 C         122.6485  152.6083  147.7454 C.2     1  UNL111     -0.0098
     16 C         118.4586  149.5936  146.5372 C.3     1  UNL111     -0.0265
     17 C         123.0071  152.2558  146.4415 C.2     1  UNL111     -0.0389
     18 H         118.8735  150.3784  144.7343 H       1  UNL111      0.1870
     19 H         117.6702  149.5933  147.2983 H       1  UNL111      0.0789
     20 H         119.3860  149.9711  146.9828 H       1  UNL111      0.0789
     21 H         118.6314  148.5526  146.2457 H       1  UNL111      0.0789
@<TRIPOS>UNITY_ATOM_ATTR
2 1
charge -1
3 1
charge 1
@<TRIPOS>BOND
     1     1     5    1
     2     2    14    1
     3     3    10    1
     4     3    16    1
     5     4     5    1
     6     4     6    1
     7     4    10    1
     8     5     7    1
     9     5    11    1
    10     6     8    1
    11     7     9    1
    12     8     9    1
    13    11    12    2
    14    11    13    1
    15    12    14    1
    16    13    15    2
    17    14    17    2
    18    15    17    1
    19     3    18    1
    20    16    19    1
    21    16    20    1
    22    16    21    1
@<TRIPOS>MOLECULE
96360331
 61 63 0 0 0
SMALL
GASTEIGER

@<TRIPOS>ATOM
      1 O         115.4727  153.8713  146.5736 O.3     1  UNL111     -0.4393
      2 O         121.3537  155.4203  147.0512 O.2     1  UNL111     -0.5328
      3 O         121.3377  153.0995  146.4800 O.3     1  UNL111     -0.3730
      4 O         124.1405  155.4901  146.5487 O.3     1  UNL111     -0.4216
      5 O         125.4785  152.9825  146.4633 O.3     1  UNL111     -0.4308
      6 O         124.0009  150.9415  145.0878 O.3     1  UNL111     -0.4313
      7 O         120.0322  150.6229  145.2870 O.co2   1  UNL111     -0.5544
      8 O         121.3502  150.0845  147.0626 O.co2   1  UNL111     -0.5544
      9 N         118.0190  151.4312  144.0992 N.4     1  UNL111      0.4247
     10 C         117.2522  152.2548  146.3877 C.3     1  UNL111     -0.0172
     11 C         116.7777  153.5702  147.0947 C.3     1  UNL111      0.0415
     12 C         116.4319  151.0341  146.8518 C.3     1  UNL111     -0.0462
     13 C         116.6539  153.3856  148.6255 C.3     1  UNL111     -0.0256
     14 C         116.3436  150.9144  148.3692 C.3     1  UNL111     -0.0576
     15 C         115.7939  152.1832  149.0006 C.3     1  UNL111     -0.0530
     16 C         117.1684  152.4192  144.8531 C.3     1  UNL111     -0.0326
     17 C         117.7333  154.7314  146.7883 C.3     1  UNL111     -0.0274
     18 C         119.0881  154.6225  147.1460 C.3     1  UNL111     -0.0134
     19 C         117.3356  155.8889  146.1000 C.3     1  UNL111     -0.0664
     20 C         123.4287  154.2554  146.7562 C.3     1  UNL111      0.0990
     21 C         121.9705  154.3539  146.2831 C.3     1  UNL111      0.1464
     22 C         124.1346  153.1492  145.9767 C.3     1  UNL111      0.0797
     23 C         120.0271  155.5743  146.7474 C.3     1  UNL111      0.0550
     24 C         123.3866  151.8105  146.0540 C.3     1  UNL111      0.0796
     25 C         121.9103  152.0119  145.7242 C.3     1  UNL111      0.1101
     26 C         117.3167  150.2304  143.5775 C.3     1  UNL111     -0.0463
     27 C         118.8717  152.0790  143.0538 C.3     1  UNL111     -0.0463
     28 C         118.2661  156.8816  145.7663 C.3     1  UNL111     -0.0675
     29 C         119.6148  156.7231  146.0863 C.3     1  UNL111     -0.0277
     30 C         121.0516  150.7607  146.0458 C.2     1  UNL111      0.0700
     31 H         115.0543  154.4924  147.1972 H       1  UNL111      0.2418
     32 H         123.6208  156.1703  147.0203 H       1  UNL111      0.2455
     33 H         125.8344  153.8900  146.5383 H       1  UNL111      0.2420
     34 H         124.9197  150.8345  145.4026 H       1  UNL111      0.2419
     35 H         118.7614  151.0482  144.7621 H       1  UNL111      0.1292
     36 H         118.2928  152.0648  146.6742 H       1  UNL111      0.0678
     37 H         116.8911  150.1145  146.4763 H       1  UNL111      0.0385
     38 H         115.4177  151.0815  146.4360 H       1  UNL111      0.0385
     39 H         116.2111  154.2817  149.0796 H       1  UNL111      0.0490
     40 H         117.6409  153.2571  149.0866 H       1  UNL111      0.0490
     41 H         117.3393  150.7006  148.7773 H       1  UNL111      0.0329
     42 H         115.7030  150.0650  148.6326 H       1  UNL111      0.0329
     43 H         114.7579  152.3432  148.6791 H       1  UNL111      0.0344
     44 H         115.7747  152.0725  150.0908 H       1  UNL111      0.0344
     45 H         116.1413  152.3171  144.4828 H       1  UNL111      0.0760
     46 H         117.5160  153.4108  144.5501 H       1  UNL111      0.0760
     47 H         119.4341  153.7608  147.7156 H       1  UNL111      0.1150
     48 H         116.2998  156.0317  145.8001 H       1  UNL111      0.0922
     49 H         123.4763  154.0448  147.8317 H       1  UNL111      0.1390
     50 H         121.9301  154.6410  145.2230 H       1  UNL111      0.1970
     51 H         124.2478  153.4500  144.9267 H       1  UNL111      0.1254
     52 H         123.5301  151.3646  147.0451 H       1  UNL111      0.1249
     53 H         121.7903  152.2305  144.6545 H       1  UNL111      0.1368
     54 H         116.6266  150.5480  142.7907 H       1  UNL111      0.0661
     55 H         116.7699  149.7469  144.3862 H       1  UNL111      0.0661
     56 H         118.0632  149.5394  143.1757 H       1  UNL111      0.0661
     57 H         118.2168  152.5166  142.2954 H       1  UNL111      0.0661
     58 H         119.5222  151.3195  142.6106 H       1  UNL111      0.0661
     59 H         119.4802  152.8515  143.5334 H       1  UNL111      0.0661
     60 H         117.9377  157.7764  145.2426 H       1  UNL111      0.0913
     61 H         120.3352  157.4888  145.8150 H       1  UNL111      0.1107
@<TRIPOS>UNITY_ATOM_ATTR
7 1
charge -1
9 1
charge 1
@<TRIPOS>BOND
     1     1    11    1
     2     2    21    1
     3     2    23    1
     4     3    21    1
     5     3    25    1
     6     4    20    1
     7     5    22    1
     8     6    24    1
     9     7    30   ar
    10     8    30   ar
    11     9    16    1
    12     9    26    1
    13     9    27    1
    14    10    11    1
    15    10    12    1
    16    10    16    1
    17    11    13    1
    18    11    17    1
    19    12    14    1
    20    13    15    1
    21    14    15    1
    22    17    18   ar
    23    17    19   ar
    24    18    23   ar
    25    19    28   ar
    26    20    21    1
    27    20    22    1
    28    22    24    1
    29    23    29   ar
    30    24    25    1
    31    25    30    1
    32    28    29   ar
    33     1    31    1
    34     4    32    1
    35     5    33    1
    36     6    34    1
    37     9    35    1
    38    10    36    1
    39    12    37    1
    40    12    38    1
    41    13    39    1
    42    13    40    1
    43    14    41    1
    44    14    42    1
    45    15    43    1
    46    15    44    1
    47    16    45    1
    48    16    46    1
    49    18    47    1
    50    19    48    1
    51    20    49    1
    52    21    50    1
    53    22    51    1
    54    24    52    1
    55    25    53    1
    56    26    54    1
    57    26    55    1
    58    26    56    1
    59    27    57    1
    60    27    58    1
    61    27    59    1
    62    28    60    1
    63    29    61    1
@<TRIPOS>MOLECULE
6918933
 45 46 0 0 0
SMALL
GASTEIGER

@<TRIPOS>ATOM
      1 O         118.5395  154.4544  148.0685 O.3     1  UNL111     -0.4393
      2 O         123.2659  152.5505  144.8093 O.3     1  UNL111     -0.5834
      3 N         117.4017  150.7019  146.3801 N.4     1  UNL111      0.4247
      4 C         118.2434  153.1092  146.1074 C.3     1  UNL111     -0.0172
      5 C         119.1301  154.2045  146.7856 C.3     1  UNL111      0.0415
      6 C         116.8237  153.6472  145.8220 C.3     1  UNL111     -0.0462
      7 C         119.1033  155.5216  145.9772 C.3     1  UNL111     -0.0256
      8 C         118.1932  151.8476  146.9983 C.3     1  UNL111     -0.0326
      9 C         116.8447  154.9528  145.0321 C.3     1  UNL111     -0.0576
     10 C         117.6825  156.0192  145.7223 C.3     1  UNL111     -0.0530
     11 C         120.5716  153.7229  146.9684 C.ar    1  UNL111     -0.0278
     12 C         118.0034  150.1684  145.1095 C.3     1  UNL111     -0.0463
     13 C         117.2052  149.5947  147.3852 C.3     1  UNL111     -0.0463
     14 C         121.3482  153.3550  145.8526 C.ar    1  UNL111     -0.0168
     15 C         121.1625  153.6078  148.2366 C.ar    1  UNL111     -0.0664
     16 C         122.6592  152.8839  145.9882 C.ar    1  UNL111      0.0355
     17 C         122.4722  153.1430  148.3780 C.ar    1  UNL111     -0.0678
     18 C         123.2190  152.7784  147.2574 C.ar    1  UNL111     -0.0311
     19 C         124.6510  152.2247  144.8712 C.3     1  UNL111      0.0293
     20 H         118.8792  155.3137  148.3843 H       1  UNL111      0.2418
     21 H         116.4607  151.0500  146.1608 H       1  UNL111      0.1292
     22 H         118.6933  152.8504  145.1415 H       1  UNL111      0.0678
     23 H         116.2826  153.8016  146.7639 H       1  UNL111      0.0385
     24 H         116.2482  152.9159  145.2441 H       1  UNL111      0.0385
     25 H         119.6049  155.3948  145.0097 H       1  UNL111      0.0490
     26 H         119.6514  156.3061  146.5151 H       1  UNL111      0.0490
     27 H         119.1907  151.4456  147.2029 H       1  UNL111      0.0760
     28 H         117.7037  152.0713  147.9529 H       1  UNL111      0.0760
     29 H         115.8198  155.3185  144.9015 H       1  UNL111      0.0329
     30 H         117.2455  154.7645  144.0284 H       1  UNL111      0.0329
     31 H         117.7167  156.9199  145.0988 H       1  UNL111      0.0344
     32 H         117.2095  156.3076  146.6686 H       1  UNL111      0.0344
     33 H         119.0375  149.8746  145.3072 H       1  UNL111      0.0661
     34 H         117.9501  150.9466  144.3458 H       1  UNL111      0.0661
     35 H         117.4093  149.3094  144.7854 H       1  UNL111      0.0661
     36 H         118.1844  149.1879  147.6520 H       1  UNL111      0.0661
     37 H         116.5731  148.8291  146.9274 H       1  UNL111      0.0661
     38 H         116.7009  150.0139  148.2599 H       1  UNL111      0.0661
     39 H         120.9468  153.4407  144.8443 H       1  UNL111      0.1146
     40 H         120.6177  153.8755  149.1400 H       1  UNL111      0.0922
     41 H         122.9159  153.0671  149.3690 H       1  UNL111      0.0912
     42 H         124.2318  152.4197  147.4113 H       1  UNL111      0.1103
     43 H         125.0005  152.0574  143.8479 H       1  UNL111      0.1069
     44 H         124.8102  151.2988  145.4334 H       1  UNL111      0.1069
     45 H         125.2343  153.0499  145.2932 H       1  UNL111      0.1069
@<TRIPOS>UNITY_ATOM_ATTR
3 1
charge 1
@<TRIPOS>BOND
     1     1     5    1
     2     2    16    1
     3     2    19    1
     4     3     8    1
     5     3    12    1
     6     3    13    1
     7     4     5    1
     8     4     6    1
     9     4     8    1
    10     5     7    1
    11     5    11    1
    12     6     9    1
    13     7    10    1
    14     9    10    1
    15    11    14   ar
    16    11    15   ar
    17    14    16   ar
    18    15    17   ar
    19    16    18   ar
    20    17    18   ar
    21     1    20    1
    22     3    21    1
    23     4    22    1
    24     6    23    1
    25     6    24    1
    26     7    25    1
    27     7    26    1
    28     8    27    1
    29     8    28    1
    30     9    29    1
    31     9    30    1
    32    10    31    1
    33    10    32    1
    34    12    33    1
    35    12    34    1
    36    12    35    1
    37    13    36    1
    38    13    37    1
    39    13    38    1
    40    14    39    1
    41    15    40    1
    42    17    41    1
    43    18    42    1
    44    19    43    1
    45    19    44    1
    46    19    45    1
@<TRIPOS>MOLECULE
6919029
 45 46 0 0 0
SMALL
GASTEIGER

@<TRIPOS>ATOM
      1 O         119.2930  154.5084  144.9501 O.3     1  UNL111     -0.4393
      2 O         123.6559  152.3986  145.1377 O.3     1  UNL111     -0.5834
      3 N         117.1323  150.9742  145.9351 N.4     1  UNL111      0.4247
      4 C         118.0865  153.2610  146.6051 C.3     1  UNL111     -0.0172
      5 C         119.2876  154.2303  146.3569 C.3     1  UNL111      0.0415
      6 C         116.7398  153.9631  146.3189 C.3     1  UNL111     -0.0462
      7 C         119.0897  155.5742  147.0960 C.3     1  UNL111     -0.0256
      8 C         118.2469  151.9933  145.7336 C.3     1  UNL111     -0.0326
      9 C         116.5971  155.2872  147.0632 C.3     1  UNL111     -0.0576
     10 C         117.7523  156.2304  146.7639 C.3     1  UNL111     -0.0530
     11 C         120.6155  153.5847  146.7642 C.ar    1  UNL111     -0.0278
     12 C         117.2145  149.8895  144.8897 C.3     1  UNL111     -0.0463
     13 C         117.0961  150.3837  147.3162 C.3     1  UNL111     -0.0463
     14 C         121.5953  153.2490  145.8114 C.ar    1  UNL111     -0.0168
     15 C         120.8882  153.2833  148.1097 C.ar    1  UNL111     -0.0664
     16 C         122.8097  152.6576  146.1799 C.ar    1  UNL111      0.0355
     17 C         122.0933  152.6835  148.4820 C.ar    1  UNL111     -0.0678
     18 C         123.0532  152.3710  147.5196 C.ar    1  UNL111     -0.0311
     19 C         124.9969  152.0566  145.4735 C.3     1  UNL111      0.0293
     20 H         119.9164  155.2457  144.8012 H       1  UNL111      0.2418
     21 H         116.2366  151.4489  145.7706 H       1  UNL111      0.1292
     22 H         118.0901  152.9737  147.6638 H       1  UNL111      0.0678
     23 H         115.9048  153.3207  146.6194 H       1  UNL111      0.0385
     24 H         116.6301  154.1404  145.2416 H       1  UNL111      0.0385
     25 H         119.8924  156.2735  146.8274 H       1  UNL111      0.0490
     26 H         119.1429  155.4367  148.1827 H       1  UNL111      0.0490
     27 H         118.2261  152.2542  144.6695 H       1  UNL111      0.0760
     28 H         119.1803  151.4622  145.9459 H       1  UNL111      0.0760
     29 H         116.5495  155.0954  148.1423 H       1  UNL111      0.0329
     30 H         115.6512  155.7648  146.7832 H       1  UNL111      0.0329
     31 H         117.7284  156.5258  145.7082 H       1  UNL111      0.0344
     32 H         117.6392  157.1485  147.3518 H       1  UNL111      0.0344
     33 H         118.1592  149.3539  145.0161 H       1  UNL111      0.0661
     34 H         117.1563  150.3606  143.9050 H       1  UNL111      0.0661
     35 H         116.3614  149.2199  145.0284 H       1  UNL111      0.0661
     36 H         118.0695  149.9353  147.5316 H       1  UNL111      0.0661
     37 H         116.3049  149.6294  147.3440 H       1  UNL111      0.0661
     38 H         116.8587  151.1767  148.0279 H       1  UNL111      0.0661
     39 H         121.4367  153.4488  144.7528 H       1  UNL111      0.1146
     40 H         120.1733  153.5200  148.8953 H       1  UNL111      0.0922
     41 H         122.2922  152.4666  149.5298 H       1  UNL111      0.0912
     42 H         123.9776  151.9056  147.8471 H       1  UNL111      0.1103
     43 H         125.5719  152.0081  144.5438 H       1  UNL111      0.1069
     44 H         125.0411  151.0700  145.9457 H       1  UNL111      0.1069
     45 H         125.4557  152.8208  146.1100 H       1  UNL111      0.1069
@<TRIPOS>UNITY_ATOM_ATTR
3 1
charge 1
@<TRIPOS>BOND
     1     1     5    1
     2     2    16    1
     3     2    19    1
     4     3     8    1
     5     3    12    1
     6     3    13    1
     7     4     5    1
     8     4     6    1
     9     4     8    1
    10     5     7    1
    11     5    11    1
    12     6     9    1
    13     7    10    1
    14     9    10    1
    15    11    14   ar
    16    11    15   ar
    17    14    16   ar
    18    15    17   ar
    19    16    18   ar
    20    17    18   ar
    21     1    20    1
    22     3    21    1
    23     4    22    1
    24     6    23    1
    25     6    24    1
    26     7    25    1
    27     7    26    1
    28     8    27    1
    29     8    28    1
    30     9    29    1
    31     9    30    1
    32    10    31    1
    33    10    32    1
    34    12    33    1
    35    12    34    1
    36    12    35    1
    37    13    36    1
    38    13    37    1
    39    13    38    1
    40    14    39    1
    41    15    40    1
    42    17    41    1
    43    18    42    1
    44    19    43    1
    45    19    44    1
    46    19    45    1
@<TRIPOS>MOLECULE
91898401
 35 37 0 0 0
SMALL
GASTEIGER

@<TRIPOS>ATOM
      1 N         121.1410  153.5569  147.7377 N.pl3   1  UNL111     -0.3382
      2 N         122.6352  151.9099  146.8922 N.pl3   1  UNL111     -0.3157
      3 N         122.5637  153.8294  145.8370 N.2     1  UNL111     -0.3200
      4 C         118.9007  153.0242  146.7597 C.ar    1  UNL111     -0.0389
      5 C         119.0926  151.5393  146.9885 C.3     1  UNL111     -0.0265
      6 C         117.8088  150.7173  146.8955 C.3     1  UNL111     -0.0529
      7 C         117.0349  151.0883  145.6413 C.3     1  UNL111     -0.0544
      8 C         116.6110  152.5510  145.7049 C.3     1  UNL111     -0.0348
      9 C         117.7323  153.4835  146.1158 C.ar    1  UNL111     -0.0665
     10 C         119.8762  153.9759  147.1213 C.ar    1  UNL111      0.0096
     11 C         117.5477  154.8584  145.8981 C.ar    1  UNL111     -0.0779
     12 C         119.6788  155.3456  146.9042 C.ar    1  UNL111     -0.0455
     13 C         122.1006  153.1026  146.8216 C.cat   1  UNL111      0.1352
     14 C         118.5106  155.7828  146.2908 C.ar    1  UNL111     -0.0735
     15 C         123.6017  151.7159  145.7863 C.3     1  UNL111      0.0553
     16 C         123.5697  153.0708  145.0630 C.3     1  UNL111      0.0521
     17 H         120.9220  152.8918  148.4841 H       1  UNL111      0.2533
     18 H         121.4929  154.3973  148.2125 H       1  UNL111      0.2533
     19 H         122.4058  151.2098  147.5878 H       1  UNL111      0.3009
     20 H         122.2476  154.7685  145.6218 H       1  UNL111      0.2996
     21 H         119.5272  151.3625  147.9784 H       1  UNL111      0.0486
     22 H         119.8062  151.1727  146.2402 H       1  UNL111      0.0486
     23 H         117.1855  150.8952  147.7810 H       1  UNL111      0.0349
     24 H         118.0559  149.6498  146.8860 H       1  UNL111      0.0349
     25 H         116.1493  150.4513  145.5388 H       1  UNL111      0.0346
     26 H         117.6604  150.9161  144.7564 H       1  UNL111      0.0346
     27 H         115.7965  152.6617  146.4320 H       1  UNL111      0.0463
     28 H         116.2217  152.8468  144.7232 H       1  UNL111      0.0463
     29 H         116.6304  155.2181  145.4263 H       1  UNL111      0.0898
     30 H         120.4001  156.1019  147.2053 H       1  UNL111      0.1051
     31 H         118.3326  156.8452  146.1216 H       1  UNL111      0.0904
     32 H         123.2581  150.8990  145.1464 H       1  UNL111      0.1151
     33 H         124.5877  151.4889  146.1994 H       1  UNL111      0.1151
     34 H         124.5312  153.5885  145.1147 H       1  UNL111      0.1158
     35 H         123.2402  152.9799  144.0249 H       1  UNL111      0.1158
@<TRIPOS>UNITY_ATOM_ATTR
1 1
charge 1
3 1
charge 1
@<TRIPOS>BOND
     1     1    10    1
     2     1    13    1
     3     2    13    1
     4     2    15    1
     5     3    13    2
     6     3    16    1
     7     4     5    1
     8     4     9   ar
     9     4    10   ar
    10     5     6    1
    11     6     7    1
    12     7     8    1
    13     8     9    1
    14     9    11   ar
    15    10    12   ar
    16    11    14   ar
    17    12    14   ar
    18    15    16    1
    19     1    17    1
    20     1    18    1
    21     2    19    1
    22     3    20    1
    23     5    21    1
    24     5    22    1
    25     6    23    1
    26     6    24    1
    27     7    25    1
    28     7    26    1
    29     8    27    1
    30     8    28    1
    31    11    29    1
    32    12    30    1
    33    14    31    1
    34    15    32    1
    35    15    33    1
    36    16    34    1
    37    16    35    1
@<TRIPOS>MOLECULE
25182360
 25 26 0 0 0
SMALL
GASTEIGER

@<TRIPOS>ATOM
      1 O         118.6896  153.6294  144.4129 O.3     1  UNL111     -0.3067
      2 O         121.8437  150.9989  148.3371 O.co2   1  UNL111     -0.8034
      3 N         117.5323  150.9087  146.9385 N.4     1  UNL111      0.4334
      4 C         118.1169  153.7212  146.6686 C.3     1  UNL111      0.0746
      5 C         119.2142  154.0368  145.5595 C.3     1  UNL111      0.1327
      6 C         117.5662  154.8384  147.3890 C.3     1  UNL111      0.0332
      7 C         119.3540  155.5206  145.5336 C.3     1  UNL111      0.0648
      8 C         117.7673  156.3548  147.3326 C.3     1  UNL111      0.0103
      9 C         118.7867  156.7436  146.2700 C.3     1  UNL111      0.0192
     10 C         117.7532  152.3666  146.9016 C.3     1  UNL111      0.0409
     11 C         120.5452  153.3453  145.8381 C.2     1  UNL111      0.0095
     12 C         120.7223  152.5801  147.0076 C.2     1  UNL111     -0.0351
     13 C         121.6272  153.4016  144.9624 C.2     1  UNL111      0.0006
     14 C         118.5952  150.2289  147.7549 C.3     1  UNL111     -0.0385
     15 C         117.5250  150.4177  145.5224 C.3     1  UNL111     -0.0385
     16 C         121.8247  151.7740  147.3235 C.2     1  UNL111     -0.0971
     17 C         122.7874  152.6838  145.2434 C.2     1  UNL111     -0.0098
     18 C         122.8615  151.8781  146.3883 C.2     1  UNL111     -0.0389
     19 H         116.6199  150.7740  147.3746 H       1  UNL111      0.1420
     20 H         119.4952  150.1238  147.1502 H       1  UNL111      0.0679
     21 H         118.2137  149.2346  148.0051 H       1  UNL111      0.0679
     22 H         118.7573  150.7976  148.6743 H       1  UNL111      0.0679
     23 H         118.5005  150.6031  145.0627 H       1  UNL111      0.0679
     24 H         116.7256  150.9324  144.9806 H       1  UNL111      0.0679
     25 H         117.3144  149.3447  145.5471 H       1  UNL111      0.0679
@<TRIPOS>UNITY_ATOM_ATTR
2 1
charge -1
3 1
charge 1
@<TRIPOS>BOND
     1     1     5    1
     2     2    16    1
     3     3    10    1
     4     3    14    1
     5     3    15    1
     6     4     5    1
     7     4     6    1
     8     4    10    1
     9     5     7    1
    10     5    11    1
    11     6     8    1
    12     7     9    1
    13     8     9    1
    14    11    12    2
    15    11    13    1
    16    12    16    1
    17    13    17    2
    18    16    18    2
    19    17    18    1
    20     3    19    1
    21    14    20    1
    22    14    21    1
    23    14    22    1
    24    15    23    1
    25    15    24    1
    26    15    25    1
@<TRIPOS>MOLECULE
49849455
 22 23 0 0 0
SMALL
GASTEIGER

@<TRIPOS>ATOM
      1 O         118.3306  153.0247  148.3708 O.3     1  UNL111     -0.3060
      2 O         123.0897  152.9451  144.6440 O.2     1  UNL111     -0.5049
      3 N         118.0276  150.2309  145.2517 N.3     1  UNL111      0.4678
      4 C         118.0285  153.0200  146.0263 C.3     1  UNL111      0.0852
      5 C         118.8811  153.5231  147.2792 C.3     1  UNL111      0.1380
      6 C         118.7255  155.0105  147.3217 C.3     1  UNL111      0.0654
      7 C         117.3679  154.0471  145.2566 C.3     1  UNL111      0.0355
      8 C         118.0327  156.1239  146.5232 C.3     1  UNL111      0.0193
      9 C         117.2549  155.5713  145.3374 C.3     1  UNL111      0.0106
     10 C         118.0105  151.6511  145.6180 C.3     1  UNL111      0.0658
     11 C         120.3615  153.1626  147.1762 C.2     1  UNL111      0.0333
     12 C         121.0107  153.1990  145.9317 C.2     1  UNL111      0.0582
     13 C         121.1450  152.8958  148.3105 C.2     1  UNL111      0.0093
     14 C         122.3766  152.9364  145.8146 C.2     1  UNL111      0.0959
     15 C         122.5077  152.6309  148.2072 C.2     1  UNL111      0.0177
     16 C         117.6544  149.4708  146.4399 C.3     1  UNL111     -0.0265
     17 C         123.1194  152.6513  146.9595 C.2     1  UNL111      0.0549
     18 C         122.3611  153.1720  143.4690 C.3     1  UNL111      0.2570
     19 H         118.9843  149.9871  145.0029 H       1  UNL111      0.1870
     20 H         116.6388  149.7162  146.7701 H       1  UNL111      0.0789
     21 H         118.3513  149.6398  147.2687 H       1  UNL111      0.0789
     22 H         117.6716  148.4018  146.2044 H       1  UNL111      0.0789
@<TRIPOS>UNITY_ATOM_ATTR
3 1
charge 1
@<TRIPOS>BOND
     1     1     5    1
     2     2    14    1
     3     2    18    1
     4     3    10    1
     5     3    16    1
     6     4     5    1
     7     4     7    1
     8     4    10    1
     9     5     6    1
    10     5    11    1
    11     6     8    1
    12     7     9    1
    13     8     9    1
    14    11    12    2
    15    11    13    1
    16    12    14    1
    17    13    15    2
    18    14    17    2
    19    15    17    1
    20     3    19    1
    21    16    20    1
    22    16    21    1
    23    16    22    1
@<TRIPOS>MOLECULE
71313807
 29 31 0 0 0
SMALL
GASTEIGER

@<TRIPOS>ATOM
      1 O         118.1183  155.0086  144.5973 O.3     1  UNL111     -0.3062
      2 O         118.5674  149.8654  146.5216 O.2     1  UNL111     -0.5049
      3 N         121.6211  154.1013  145.0087 N.4     1  UNL111      0.4469
      4 C         119.3821  154.9817  146.5871 C.3     1  UNL111      0.0774
      5 C         117.9656  154.7825  145.8890 C.3     1  UNL111      0.1363
      6 C         119.4364  155.9086  147.6888 C.3     1  UNL111      0.0335
      7 C         117.0809  155.8288  146.4752 C.3     1  UNL111      0.0652
      8 C         118.4596  156.9101  148.3092 C.3     1  UNL111      0.0103
      9 C         117.1143  156.8769  147.5974 C.3     1  UNL111      0.0192
     10 C         120.5519  154.5493  145.9031 C.3     1  UNL111      0.0555
     11 C         117.4112  153.3792  146.0861 C.2     1  UNL111      0.0331
     12 C         118.2651  152.2800  146.2455 C.2     1  UNL111      0.0582
     13 C         116.0321  153.1270  146.0476 C.2     1  UNL111      0.0093
     14 C         122.5783  153.2697  145.7304 C.3     1  UNL111      0.0721
     15 C         121.0354  153.4328  143.8061 C.3     1  UNL111     -0.0278
     16 C         117.7799  150.9783  146.3673 C.2     1  UNL111      0.0959
     17 C         115.5306  151.8332  146.1818 C.2     1  UNL111      0.0177
     18 C         123.5218  152.4644  146.4347 C.2     1  UNL111      0.0060
     19 C         116.4046  150.7614  146.3418 C.2     1  UNL111      0.0549
     20 C         124.4269  151.6787  145.7258 C.2     1  UNL111      0.0080
     21 C         123.5446  152.4795  147.8268 C.2     1  UNL111      0.0080
     22 C         125.3589  150.9043  146.4129 C.2     1  UNL111      0.0019
     23 C         124.4771  151.7046  148.5125 C.2     1  UNL111      0.0019
     24 C         119.9522  150.0835  146.4060 C.3     1  UNL111      0.2570
     25 C         125.3842  150.9182  147.8056 C.2     1  UNL111      0.0003
     26 H         122.0851  154.9611  144.6955 H       1  UNL111      0.1598
     27 H         120.4291  152.5784  144.1200 H       1  UNL111      0.0702
     28 H         121.8629  153.0963  143.1734 H       1  UNL111      0.0702
     29 H         120.4437  154.1655  143.2519 H       1  UNL111      0.0702
@<TRIPOS>UNITY_ATOM_ATTR
3 1
charge 1
@<TRIPOS>BOND
     1     1     5    1
     2     2    16    1
     3     2    24    1
     4     3    10    1
     5     3    14    1
     6     3    15    1
     7     4     5    1
     8     4     6    1
     9     4    10    1
    10     5     7    1
    11     5    11    1
    12     6     8    1
    13     7     9    1
    14     8     9    1
    15    11    12    2
    16    11    13    1
    17    12    16    1
    18    13    17    2
    19    14    18    1
    20    16    19    2
    21    17    19    1
    22    18    20    2
    23    18    21    1
    24    20    22    1
    25    21    23    2
    26    22    25    2
    27    23    25    1
    28     3    26    1
    29    15    27    1
    30    15    28    1
    31    15    29    1
@<TRIPOS>MOLECULE
25181826
 29 30 0 0 0
SMALL
GASTEIGER

@<TRIPOS>ATOM
      1 O         118.3708  153.5061  148.1513 O.3     1  UNL111     -0.3062
      2 O         123.2900  152.5170  144.7937 O.2     1  UNL111     -0.5754
      3 N         117.3046  150.6339  146.0637 N.4     1  UNL111      0.4334
      4 C         118.2672  153.3398  145.8271 C.3     1  UNL111      0.0749
      5 C         119.0831  153.8440  147.0924 C.3     1  UNL111      0.1361
      6 C         117.8819  154.3351  144.8612 C.3     1  UNL111      0.0332
      7 C         119.1396  155.3282  146.9921 C.3     1  UNL111      0.0652
      8 C         118.0075  155.8588  144.7827 C.3     1  UNL111      0.0103
      9 C         118.7167  156.4267  146.0053 C.3     1  UNL111      0.0192
     10 C         117.7742  152.0082  145.8191 C.3     1  UNL111      0.0409
     11 C         120.4818  153.2399  147.1243 C.2     1  UNL111      0.0328
     12 C         121.2322  153.1661  145.9410 C.2     1  UNL111      0.0555
     13 C         121.0965  152.8020  148.3063 C.2     1  UNL111      0.0093
     14 C         117.0762  150.4793  147.5442 C.3     1  UNL111     -0.0385
     15 C         118.2698  149.6421  145.5214 C.3     1  UNL111     -0.0385
     16 C         122.5235  152.6405  145.9211 C.2     1  UNL111      0.0771
     17 C         122.3842  152.2687  148.2991 C.2     1  UNL111      0.0174
     18 C         123.0924  152.1808  147.1048 C.2     1  UNL111      0.0521
     19 C         122.7623  153.1654  143.6392 C.3     1  UNL111      0.0310
     20 H         116.3998  150.5600  145.5885 H       1  UNL111      0.1420
     21 H         118.0312  150.5739  148.0690 H       1  UNL111      0.0679
     22 H         116.6540  149.4834  147.7064 H       1  UNL111      0.0679
     23 H         116.3543  151.2352  147.8669 H       1  UNL111      0.0679
     24 H         119.2339  149.7618  146.0255 H       1  UNL111      0.0679
     25 H         118.3697  149.8103  144.4449 H       1  UNL111      0.0679
     26 H         117.8638  148.6427  145.7006 H       1  UNL111      0.0679
     27 H         123.4867  153.0434  142.8282 H       1  UNL111      0.1071
     28 H         122.6307  154.2392  143.8115 H       1  UNL111      0.1071
     29 H         121.8233  152.7000  143.3204 H       1  UNL111      0.1071
@<TRIPOS>UNITY_ATOM_ATTR
3 1
charge 1
@<TRIPOS>BOND
     1     1     5    1
     2     2    16    1
     3     2    19    1
     4     3    10    1
     5     3    14    1
     6     3    15    1
     7     4     5    1
     8     4     6    1
     9     4    10    1
    10     5     7    1
    11     5    11    1
    12     6     8    1
    13     7     9    1
    14     8     9    1
    15    11    12    2
    16    11    13    1
    17    12    16    1
    18    13    17    2
    19    16    18    2
    20    17    18    1
    21     3    20    1
    22    14    21    1
    23    14    22    1
    24    14    23    1
    25    15    24    1
    26    15    25    1
    27    15    26    1
    28    19    27    1
    29    19    28    1
    30    19    29    1
@<TRIPOS>MOLECULE
40424854
 39 40 0 0 0
SMALL
GASTEIGER

@<TRIPOS>ATOM
      1 O         118.7656  153.3911  144.6925 O.3     1  UNL111     -0.4393
      2 O         123.5269  152.6560  145.2379 O.3     1  UNL111     -0.5834
      3 N         117.7092  149.9140  146.8354 N.4     1  UNL111      0.4370
      4 C         118.8021  153.5553  146.1162 C.3     1  UNL111      0.0414
      5 C         117.9290  152.4010  146.7012 C.3     1  UNL111     -0.0169
      6 C         118.2025  154.9424  146.4427 C.3     1  UNL111     -0.0256
      7 C         116.4427  152.5740  146.3124 C.3     1  UNL111     -0.0463
      8 C         116.7398  155.0604  146.0219 C.3     1  UNL111     -0.0530
      9 C         115.9033  153.9589  146.6557 C.3     1  UNL111     -0.0576
     10 C         118.4623  151.0388  146.2165 C.3     1  UNL111     -0.0236
     11 C         120.2467  153.4569  146.6136 C.ar    1  UNL111     -0.0278
     12 C         121.3021  153.1118  145.7485 C.ar    1  UNL111     -0.0168
     13 C         120.5611  153.6759  147.9657 C.ar    1  UNL111     -0.0664
     14 C         122.6223  153.0027  146.2024 C.ar    1  UNL111      0.0355
     15 C         121.8754  153.5646  148.4250 C.ar    1  UNL111     -0.0678
     16 C         122.9047  153.2282  147.5459 C.ar    1  UNL111     -0.0311
     17 C         124.9039  152.7281  145.5933 C.3     1  UNL111      0.0293
     18 H         119.1598  154.1930  144.2964 H       1  UNL111      0.2418
     19 H         118.1421  149.0162  146.5811 H       1  UNL111      0.1375
     20 H         116.7357  149.8788  146.5083 H       1  UNL111      0.1375
     21 H         117.7061  149.9733  147.8612 H       1  UNL111      0.1375
     22 H         117.9855  152.4283  147.7983 H       1  UNL111      0.0676
     23 H         118.7726  155.7287  145.9309 H       1  UNL111      0.0490
     24 H         118.2661  155.1559  147.5164 H       1  UNL111      0.0490
     25 H         115.8265  151.8325  146.8335 H       1  UNL111      0.0385
     26 H         116.3119  152.3926  145.2380 H       1  UNL111      0.0385
     27 H         116.6561  155.0104  144.9298 H       1  UNL111      0.0344
     28 H         116.3497  156.0388  146.3248 H       1  UNL111      0.0344
     29 H         115.8913  154.0866  147.7451 H       1  UNL111      0.0329
     30 H         114.8655  154.0433  146.3138 H       1  UNL111      0.0329
     31 H         118.3664  150.9081  145.1343 H       1  UNL111      0.0759
     32 H         119.5038  150.8768  146.5055 H       1  UNL111      0.0759
     33 H         121.1193  152.9216  144.6920 H       1  UNL111      0.1146
     34 H         119.7923  153.9473  148.6866 H       1  UNL111      0.0922
     35 H         122.1029  153.7492  149.4733 H       1  UNL111      0.0912
     36 H         123.9130  153.1515  147.9408 H       1  UNL111      0.1103
     37 H         125.4921  152.5172  144.6951 H       1  UNL111      0.1069
     38 H         125.1541  151.9696  146.3421 H       1  UNL111      0.1069
     39 H         125.1728  153.7313  145.9407 H       1  UNL111      0.1069
@<TRIPOS>UNITY_ATOM_ATTR
3 1
charge 1
@<TRIPOS>BOND
     1     1     4    1
     2     2    14    1
     3     2    17    1
     4     3    10    1
     5     4     5    1
     6     4     6    1
     7     4    11    1
     8     5     7    1
     9     5    10    1
    10     6     8    1
    11     7     9    1
    12     8     9    1
    13    11    12   ar
    14    11    13   ar
    15    12    14   ar
    16    13    15   ar
    17    14    16   ar
    18    15    16   ar
    19     1    18    1
    20     3    19    1
    21     3    20    1
    22     3    21    1
    23     5    22    1
    24     6    23    1
    25     6    24    1
    26     7    25    1
    27     7    26    1
    28     8    27    1
    29     8    28    1
    30     9    29    1
    31     9    30    1
    32    10    31    1
    33    10    32    1
    34    12    33    1
    35    13    34    1
    36    15    35    1
    37    16    36    1
    38    17    37    1
    39    17    38    1
    40    17    39    1
@<TRIPOS>MOLECULE
46781195
 61 63 0 0 0
SMALL
GASTEIGER

@<TRIPOS>ATOM
      1 O         116.6997  152.0760  144.3387 O.3     1  UNL111     -0.4393
      2 O         121.2399  150.7521  146.0619 O.2     1  UNL111     -0.5328
      3 O         121.7111  152.9109  146.9270 O.3     1  UNL111     -0.3730
      4 O         123.4007  152.1257  144.7884 O.3     1  UNL111     -0.4216
      5 O         125.7490  152.4494  146.1665 O.3     1  UNL111     -0.4308
      6 O         124.9123  154.3495  148.1568 O.3     1  UNL111     -0.4313
      7 O         121.2352  155.4330  148.7529 O.co2   1  UNL111     -0.5544
      8 O         122.0935  155.8347  146.6931 O.co2   1  UNL111     -0.5544
      9 N         117.9271  155.7598  147.4553 N.4     1  UNL111      0.4247
     10 C         117.0903  153.9591  145.8321 C.3     1  UNL111     -0.0172
     11 C         116.6517  152.4552  145.7237 C.3     1  UNL111      0.0415
     12 C         116.0487  154.8912  145.1750 C.3     1  UNL111     -0.0462
     13 C         115.1941  152.2686  146.2130 C.3     1  UNL111     -0.0256
     14 C         114.6355  154.6803  145.7042 C.3     1  UNL111     -0.0576
     15 C         114.1967  153.2296  145.5636 C.3     1  UNL111     -0.0530
     16 C         117.4093  154.3472  147.2949 C.3     1  UNL111     -0.0326
     17 C         117.6663  151.5288  146.4053 C.3     1  UNL111     -0.0274
     18 C         118.9944  151.4970  145.9336 C.3     1  UNL111     -0.0134
     19 C         117.3593  150.7264  147.5185 C.3     1  UNL111     -0.0664
     20 C         123.5012  151.5390  146.1078 C.3     1  UNL111      0.0990
     21 C         122.1479  151.5539  146.8417 C.3     1  UNL111      0.1464
     22 C         124.5146  152.3580  146.9011 C.3     1  UNL111      0.0797
     23 C         119.9770  150.7492  146.5836 C.3     1  UNL111      0.0550
     24 C         124.0076  153.7789  147.1991 C.3     1  UNL111      0.0796
     25 C         122.5815  153.7347  147.7510 C.3     1  UNL111      0.1101
     26 C         118.2881  156.0107  148.9057 C.3     1  UNL111     -0.0463
     27 C         119.1323  156.0421  146.5806 C.3     1  UNL111     -0.0463
     28 C         118.3421  149.9493  148.1457 C.3     1  UNL111     -0.0675
     29 C         119.6544  149.9608  147.6799 C.3     1  UNL111     -0.0277
     30 C         121.9768  155.1575  147.7562 C.2     1  UNL111      0.0700
     31 H         116.0010  152.5249  143.8401 H       1  UNL111      0.2418
     32 H         122.6215  152.7195  144.8183 H       1  UNL111      0.2455
     33 H         125.4773  152.5598  145.2306 H       1  UNL111      0.2420
     34 H         125.7924  154.3047  147.7353 H       1  UNL111      0.2419
     35 H         117.2128  156.4481  147.2093 H       1  UNL111      0.1292
     36 H         118.0063  154.0764  145.2384 H       1  UNL111      0.0678
     37 H         116.0487  154.7175  144.0913 H       1  UNL111      0.0385
     38 H         116.3270  155.9428  145.2988 H       1  UNL111      0.0385
     39 H         115.1331  152.4143  147.2984 H       1  UNL111      0.0490
     40 H         114.8578  151.2449  146.0030 H       1  UNL111      0.0490
     41 H         113.9401  155.3254  145.1548 H       1  UNL111      0.0329
     42 H         114.5795  154.9839  146.7559 H       1  UNL111      0.0329
     43 H         113.2122  153.0997  146.0281 H       1  UNL111      0.0344
     44 H         114.0693  152.9834  144.5031 H       1  UNL111      0.0344
     45 H         116.5179  154.2767  147.9272 H       1  UNL111      0.0760
     46 H         118.1817  153.6985  147.7193 H       1  UNL111      0.0760
     47 H         119.2806  152.0701  145.0537 H       1  UNL111      0.1150
     48 H         116.3529  150.6738  147.9243 H       1  UNL111      0.0922
     49 H         123.8592  150.5154  145.9552 H       1  UNL111      0.1390
     50 H         122.2520  151.1209  147.8458 H       1  UNL111      0.1970
     51 H         124.7530  151.8485  147.8426 H       1  UNL111      0.1254
     52 H         124.0754  154.3855  146.2882 H       1  UNL111      0.1249
     53 H         122.5697  153.3452  148.7771 H       1  UNL111      0.1368
     54 H         118.9231  155.2011  149.2662 H       1  UNL111      0.0661
     55 H         117.3505  156.0190  149.4697 H       1  UNL111      0.0661
     56 H         118.7672  156.9891  148.9897 H       1  UNL111      0.0661
     57 H         119.7336  155.1367  146.5396 H       1  UNL111      0.0661
     58 H         119.6634  156.9111  146.9740 H       1  UNL111      0.0661
     59 H         118.7581  156.2835  145.5822 H       1  UNL111      0.0661
     60 H         118.0788  149.3269  148.9978 H       1  UNL111      0.0913
     61 H         120.4081  149.3440  148.1590 H       1  UNL111      0.1107
@<TRIPOS>UNITY_ATOM_ATTR
7 1
charge -1
9 1
charge 1
@<TRIPOS>BOND
     1     1    11    1
     2     2    21    1
     3     2    23    1
     4     3    21    1
     5     3    25    1
     6     4    20    1
     7     5    22    1
     8     6    24    1
     9     7    30   ar
    10     8    30   ar
    11     9    16    1
    12     9    26    1
    13     9    27    1
    14    10    11    1
    15    10    12    1
    16    10    16    1
    17    11    13    1
    18    11    17    1
    19    12    14    1
    20    13    15    1
    21    14    15    1
    22    17    18   ar
    23    17    19   ar
    24    18    23   ar
    25    19    28   ar
    26    20    21    1
    27    20    22    1
    28    22    24    1
    29    23    29   ar
    30    24    25    1
    31    25    30    1
    32    28    29   ar
    33     1    31    1
    34     4    32    1
    35     5    33    1
    36     6    34    1
    37     9    35    1
    38    10    36    1
    39    12    37    1
    40    12    38    1
    41    13    39    1
    42    13    40    1
    43    14    41    1
    44    14    42    1
    45    15    43    1
    46    15    44    1
    47    16    45    1
    48    16    46    1
    49    18    47    1
    50    19    48    1
    51    20    49    1
    52    21    50    1
    53    22    51    1
    54    24    52    1
    55    25    53    1
    56    26    54    1
    57    26    55    1
    58    26    56    1
    59    27    57    1
    60    27    58    1
    61    27    59    1
    62    28    60    1
    63    29    61    1
@<TRIPOS>MOLECULE
91284185
 21 22 0 0 0
SMALL
GASTEIGER

@<TRIPOS>ATOM
      1 O         120.9003  154.1168  144.5673 O.3     1  UNL111     -0.4303
      2 O         116.8406  151.3492  146.0718 O.2     1  UNL111     -0.5049
      3 N         121.1599  150.4621  146.0499 N.4     1  UNL111      0.4650
      4 C         121.5913  153.2486  146.7020 C.3     1  UNL111      0.0649
      5 C         120.7186  154.3446  145.9642 C.3     1  UNL111      0.0839
      6 C         122.6307  153.7355  147.5675 C.3     1  UNL111      0.0305
      7 C         121.2724  155.6668  146.3494 C.3     1  UNL111      0.0469
      8 C         123.1587  155.1200  147.9514 C.3     1  UNL111      0.0096
      9 C         122.3830  156.2257  147.2487 C.3     1  UNL111      0.0157
     10 C         121.4217  151.8634  146.3934 C.3     1  UNL111      0.0719
     11 C         119.2500  154.1556  146.2734 C.2     1  UNL111      0.0177
     12 C         118.6421  152.9586  145.8947 C.2     1  UNL111      0.0552
     13 C         118.4803  155.0620  147.0019 C.2     1  UNL111      0.0063
     14 C         121.5726  149.5793  147.1380 C.3     1  UNL111      0.1080
     15 C         121.8334  150.0964  144.8072 C.3     1  UNL111      0.1080
     16 C         117.3581  152.6023  146.2979 C.2     1  UNL111      0.0956
     17 C         117.1548  154.7620  147.3357 C.2     1  UNL111      0.0173
     18 C         116.5958  153.5265  146.9994 C.2     1  UNL111      0.0548
     19 C         117.8561  150.3676  145.9298 C.3     1  UNL111      0.2570
     20 H         121.0305  154.9880  144.1464 H       1  UNL111      0.2436
     21 H         120.1408  150.3385  145.9093 H       1  UNL111      0.1833
@<TRIPOS>UNITY_ATOM_ATTR
3 1
charge 1
@<TRIPOS>BOND
     1     1     5    1
     2     2    16    1
     3     2    19    1
     4     3    10    1
     5     3    14    1
     6     3    15    1
     7     4     5    1
     8     4     6    1
     9     4    10    1
    10     5     7    1
    11     5    11    1
    12     6     8    1
    13     7     9    1
    14     8     9    1
    15    11    12    2
    16    11    13    1
    17    12    16    1
    18    13    17    2
    19    16    18    2
    20    17    18    1
    21     1    20    1
    22     3    21    1
@<TRIPOS>MOLECULE
91747931
 42 43 0 0 0
SMALL
GASTEIGER

@<TRIPOS>ATOM
      1 O         120.2775  155.5689  145.0676 O.3     1  UNL111     -0.4525
      2 O         115.6788  152.0762  148.0985 O.3     1  UNL111     -0.5647
      3 N         122.2840  150.8008  146.3075 N.4     1  UNL111      0.4240
      4 C         121.2953  153.1545  146.4151 C.3     1  UNL111     -0.0349
      5 C         120.0760  153.9864  146.9206 C.3     1  UNL111      0.0024
      6 C         120.2028  155.4689  146.4915 C.3     1  UNL111      0.0140
      7 C         122.5991  153.7876  146.9504 C.3     1  UNL111     -0.0509
      8 C         121.4851  156.0701  147.0684 C.3     1  UNL111     -0.0351
      9 C         122.7176  155.2783  146.6322 C.3     1  UNL111     -0.0530
     10 C         121.1637  151.6772  146.8418 C.3     1  UNL111     -0.0387
     11 C         118.7327  153.3893  146.5196 C.ar    1  UNL111     -0.0516
     12 C         117.8038  153.0347  147.5137 C.ar    1  UNL111     -0.0260
     13 C         118.4010  153.1532  145.1750 C.ar    1  UNL111     -0.0747
     14 C         122.2614  150.6570  144.8077 C.3     1  UNL111     -0.0465
     15 C         122.2667  149.4470  146.9710 C.3     1  UNL111     -0.0465
     16 C         116.5950  152.4402  147.1582 C.ar    1  UNL111      0.0337
     17 C         117.1860  152.5565  144.8326 C.ar    1  UNL111     -0.0697
     18 C         116.2850  152.1906  145.8284 C.ar    1  UNL111     -0.0325
     19 H         120.1541  156.5089  144.8380 H       1  UNL111      0.2358
     20 H         115.9000  152.4961  148.9458 H       1  UNL111      0.3342
     21 H         123.1823  151.2290  146.5598 H       1  UNL111      0.1289
     22 H         121.3181  153.2046  145.3203 H       1  UNL111      0.0569
     23 H         120.1154  153.9718  148.0204 H       1  UNL111      0.0692
     24 H         119.3302  156.0405  146.8290 H       1  UNL111      0.0964
     25 H         123.4735  153.2829  146.5259 H       1  UNL111      0.0369
     26 H         122.6518  153.6515  148.0382 H       1  UNL111      0.0369
     27 H         121.4273  156.0885  148.1632 H       1  UNL111      0.0451
     28 H         121.5984  157.1061  146.7278 H       1  UNL111      0.0451
     29 H         122.8744  155.4044  145.5539 H       1  UNL111      0.0344
     30 H         123.6068  155.6871  147.1262 H       1  UNL111      0.0344
     31 H         121.2001  151.6021  147.9352 H       1  UNL111      0.0742
     32 H         120.2332  151.2184  146.4937 H       1  UNL111      0.0742
     33 H         118.0243  153.2177  148.5617 H       1  UNL111      0.1122
     34 H         119.0778  153.4459  144.3742 H       1  UNL111      0.0901
     35 H         121.2813  150.2778  144.5066 H       1  UNL111      0.0661
     36 H         123.0534  149.9596  144.5211 H       1  UNL111      0.0661
     37 H         122.4659  151.6317  144.3609 H       1  UNL111      0.0661
     38 H         121.3250  148.9491  146.7245 H       1  UNL111      0.0661
     39 H         122.3628  149.5966  148.0496 H       1  UNL111      0.0661
     40 H         123.1224  148.8760  146.6008 H       1  UNL111      0.0661
     41 H         116.9340  152.3888  143.7880 H       1  UNL111      0.0910
     42 H         115.3348  151.7315  145.5675 H       1  UNL111      0.1100
@<TRIPOS>UNITY_ATOM_ATTR
3 1
charge 1
@<TRIPOS>BOND
     1     1     6    1
     2     2    16    1
     3     3    10    1
     4     3    14    1
     5     3    15    1
     6     4     5    1
     7     4     7    1
     8     4    10    1
     9     5     6    1
    10     5    11    1
    11     6     8    1
    12     7     9    1
    13     8     9    1
    14    11    12   ar
    15    11    13   ar
    16    12    16   ar
    17    13    17   ar
    18    16    18   ar
    19    17    18   ar
    20     1    19    1
    21     2    20    1
    22     3    21    1
    23     4    22    1
    24     5    23    1
    25     6    24    1
    26     7    25    1
    27     7    26    1
    28     8    27    1
    29     8    28    1
    30     9    29    1
    31     9    30    1
    32    10    31    1
    33    10    32    1
    34    12    33    1
    35    13    34    1
    36    14    35    1
    37    14    36    1
    38    14    37    1
    39    15    38    1
    40    15    39    1
    41    15    40    1
    42    17    41    1
    43    18    42    1
@<TRIPOS>MOLECULE
44407381
 25 26 0 0 0
SMALL
GASTEIGER

@<TRIPOS>ATOM
      1 O         118.7106  153.6096  148.4051 O.3     1  UNL111     -0.3067
      2 O         121.9048  151.0669  144.4538 O.co2   1  UNL111     -0.8034
      3 N         117.6211  150.8227  145.9208 N.4     1  UNL111      0.4334
      4 C         118.1018  153.6577  146.1577 C.3     1  UNL111      0.0746
      5 C         119.2027  154.0253  147.2471 C.3     1  UNL111      0.1327
      6 C         117.4987  154.7464  145.4354 C.3     1  UNL111      0.0332
      7 C         119.2868  155.5135  147.2572 C.3     1  UNL111      0.0648
      8 C         117.6433  156.2697  145.4747 C.3     1  UNL111      0.0103
      9 C         118.6629  156.7069  146.5182 C.3     1  UNL111      0.0192
     10 C         117.7868  152.2881  145.9420 C.3     1  UNL111      0.0409
     11 C         120.5545  153.3816  146.9547 C.2     1  UNL111      0.0095
     12 C         120.7441  152.6159  145.7875 C.2     1  UNL111     -0.0351
     13 C         121.6453  153.4835  147.8154 C.2     1  UNL111      0.0006
     14 C         117.6475  150.3450  147.3411 C.3     1  UNL111     -0.0385
     15 C         118.7004  150.1761  145.0987 C.3     1  UNL111     -0.0385
     16 C         121.8709  151.8482  145.4622 C.2     1  UNL111     -0.0971
     17 C         122.8271  152.8067  147.5233 C.2     1  UNL111     -0.0098
     18 C         122.9156  151.9964  146.3828 C.2     1  UNL111     -0.0389
     19 H         116.7099  150.6493  145.4958 H       1  UNL111      0.1420
     20 H         118.6202  150.5715  147.7884 H       1  UNL111      0.0679
     21 H         117.4776  149.2646  147.3284 H       1  UNL111      0.0679
     22 H         116.8350  150.8341  147.8871 H       1  UNL111      0.0679
     23 H         119.6108  150.1134  145.6936 H       1  UNL111      0.0679
     24 H         118.8288  150.7406  144.1714 H       1  UNL111      0.0679
     25 H         118.3555  149.1648  144.8639 H       1  UNL111      0.0679
@<TRIPOS>UNITY_ATOM_ATTR
2 1
charge -1
3 1
charge 1
@<TRIPOS>BOND
     1     1     5    1
     2     2    16    1
     3     3    10    1
     4     3    14    1
     5     3    15    1
     6     4     5    1
     7     4     6    1
     8     4    10    1
     9     5     7    1
    10     5    11    1
    11     6     8    1
    12     7     9    1
    13     8     9    1
    14    11    12    2
    15    11    13    1
    16    12    16    1
    17    13    17    2
    18    16    18    2
    19    17    18    1
    20     3    19    1
    21    14    20    1
    22    14    21    1
    23    14    22    1
    24    15    23    1
    25    15    24    1
    26    15    25    1
@<TRIPOS>MOLECULE
133688069
 22 23 0 0 0
SMALL
GASTEIGER

@<TRIPOS>ATOM
      1 O         118.0937  153.3197  144.4631 O.3     1  UNL111     -0.3060
      2 O         123.0416  152.8241  147.9590 O.2     1  UNL111     -0.5049
      3 N         117.3518  150.4471  147.4338 N.3     1  UNL111      0.4678
      4 C         117.8534  153.2305  146.8166 C.3     1  UNL111      0.0852
      5 C         118.7435  153.6536  145.5628 C.3     1  UNL111      0.1380
      6 C         118.8332  155.1473  145.5935 C.3     1  UNL111      0.0654
      7 C         117.3855  154.3091  147.6539 C.3     1  UNL111      0.0355
      8 C         118.3484  156.3152  146.4646 C.3     1  UNL111      0.0193
      9 C         117.5193  155.8338  147.6468 C.3     1  UNL111      0.0106
     10 C         117.6127  151.8632  147.1521 C.3     1  UNL111      0.0658
     11 C         120.1388  153.0373  145.6279 C.2     1  UNL111      0.0333
     12 C         120.9297  153.2390  146.7720 C.2     1  UNL111      0.0582
     13 C         120.6852  152.2754  144.5843 C.2     1  UNL111      0.0093
     14 C         122.2104  152.6950  146.8768 C.2     1  UNL111      0.0959
     15 C         121.9604  151.7248  144.6783 C.2     1  UNL111      0.0177
     16 C         118.1681  149.6598  146.5161 C.3     1  UNL111     -0.0265
     17 C         122.7175  151.9327  145.8254 C.2     1  UNL111      0.0549
     18 C         122.6150  153.6881  148.9764 C.3     1  UNL111      0.2570
     19 H         116.3723  150.2711  147.2157 H       1  UNL111      0.1870
     20 H         119.2373  149.8305  146.6845 H       1  UNL111      0.0789
     21 H         117.9312  149.8768  145.4683 H       1  UNL111      0.0789
     22 H         117.9772  148.5953  146.6861 H       1  UNL111      0.0789
@<TRIPOS>UNITY_ATOM_ATTR
3 1
charge 1
@<TRIPOS>BOND
     1     1     5    1
     2     2    14    1
     3     2    18    1
     4     3    10    1
     5     3    16    1
     6     4     5    1
     7     4     7    1
     8     4    10    1
     9     5     6    1
    10     5    11    1
    11     6     8    1
    12     7     9    1
    13     8     9    1
    14    11    12    2
    15    11    13    1
    16    12    14    1
    17    13    15    2
    18    14    17    2
    19    15    17    1
    20     3    19    1
    21    16    20    1
    22    16    21    1
    23    16    22    1
@<TRIPOS>MOLECULE
5523
 45 46 0 0 0
SMALL
GASTEIGER

@<TRIPOS>ATOM
      1 O         119.2897  154.5016  144.9426 O.3     1  UNL111     -0.4393
      2 O         123.6643  152.4177  145.1423 O.3     1  UNL111     -0.5834
      3 N         117.1535  150.9555  145.9382 N.4     1  UNL111      0.4247
      4 C         118.0903  153.2517  146.6009 C.3     1  UNL111     -0.0172
      5 C         119.2845  154.2288  146.3504 C.3     1  UNL111      0.0415
      6 C         116.7388  153.9427  146.3103 C.3     1  UNL111     -0.0462
      7 C         119.0758  155.5741  147.0840 C.3     1  UNL111     -0.0256
      8 C         116.5853  155.2687  147.0491 C.3     1  UNL111     -0.0576
      9 C         117.7340  156.2192  146.7476 C.3     1  UNL111     -0.0530
     10 C         118.2611  151.9818  145.7348 C.3     1  UNL111     -0.0326
     11 C         120.6165  153.5943  146.7618 C.ar    1  UNL111     -0.0278
     12 C         121.5986  153.2595  145.8110 C.ar    1  UNL111     -0.0168
     13 C         120.8908  153.3020  148.1089 C.ar    1  UNL111     -0.0664
     14 C         117.1185  150.3706  147.3217 C.3     1  UNL111     -0.0463
     15 C         117.2457  149.8671  144.8977 C.3     1  UNL111     -0.0463
     16 C         122.8165  152.6774  146.1830 C.ar    1  UNL111      0.0355
     17 C         122.0995  152.7118  148.4848 C.ar    1  UNL111     -0.0678
     18 C         123.0615  152.3999  147.5243 C.ar    1  UNL111     -0.0311
     19 C         125.0066  152.0829  145.4799 C.3     1  UNL111      0.0293
     20 H         119.9087  155.2422  144.7916 H       1  UNL111      0.2418
     21 H         116.2547  151.4230  145.7698 H       1  UNL111      0.1292
     22 H         118.0946  152.9685  147.6608 H       1  UNL111      0.0678
     23 H         115.9082  153.2954  146.6122 H       1  UNL111      0.0385
     24 H         116.6292  154.1150  145.2321 H       1  UNL111      0.0385
     25 H         119.8736  156.2782  146.8137 H       1  UNL111      0.0490
     26 H         119.1284  155.4413  148.1713 H       1  UNL111      0.0490
     27 H         116.5377  155.0808  148.1289 H       1  UNL111      0.0329
     28 H         115.6363  155.7382  146.7660 H       1  UNL111      0.0329
     29 H         117.7093  156.5102  145.6907 H       1  UNL111      0.0344
     30 H         117.6133  157.1387  147.3317 H       1  UNL111      0.0344
     31 H         118.2404  152.2383  144.6696 H       1  UNL111      0.0760
     32 H         119.1978  151.4581  145.9508 H       1  UNL111      0.0760
     33 H         121.4390  153.4524  144.7513 H       1  UNL111      0.1146
     34 H         120.1741  153.5382  148.8931 H       1  UNL111      0.0922
     35 H         118.0946  149.9302  147.5411 H       1  UNL111      0.0661
     36 H         116.3328  149.6107  147.3511 H       1  UNL111      0.0661
     37 H         116.8738  151.1649  148.0296 H       1  UNL111      0.0661
     38 H         118.1939  149.3387  145.0283 H       1  UNL111      0.0661
     39 H         117.1863  150.3335  143.9108 H       1  UNL111      0.0661
     40 H         116.3971  149.1919  145.0373 H       1  UNL111      0.0661
     41 H         122.2996  152.5020  149.5337 H       1  UNL111      0.0912
     42 H         123.9888  151.9422  147.8545 H       1  UNL111      0.1103
     43 H         125.5819  152.0317  144.5505 H       1  UNL111      0.1069
     44 H         125.0548  151.0991  145.9575 H       1  UNL111      0.1069
     45 H         125.4623  152.8525  146.1123 H       1  UNL111      0.1069
@<TRIPOS>UNITY_ATOM_ATTR
3 1
charge 1
@<TRIPOS>BOND
     1     1     5    1
     2     2    16    1
     3     2    19    1
     4     3    10    1
     5     3    14    1
     6     3    15    1
     7     4     5    1
     8     4     6    1
     9     4    10    1
    10     5     7    1
    11     5    11    1
    12     6     8    1
    13     7     9    1
    14     8     9    1
    15    11    12   ar
    16    11    13   ar
    17    12    16   ar
    18    13    17   ar
    19    16    18   ar
    20    17    18   ar
    21     1    20    1
    22     3    21    1
    23     4    22    1
    24     6    23    1
    25     6    24    1
    26     7    25    1
    27     7    26    1
    28     8    27    1
    29     8    28    1
    30     9    29    1
    31     9    30    1
    32    10    31    1
    33    10    32    1
    34    12    33    1
    35    13    34    1
    36    14    35    1
    37    14    36    1
    38    14    37    1
    39    15    38    1
    40    15    39    1
    41    15    40    1
    42    17    41    1
    43    18    42    1
    44    19    43    1
    45    19    44    1
    46    19    45    1
@<TRIPOS>MOLECULE
10354700
 42 43 0 0 0
SMALL
GASTEIGER

@<TRIPOS>ATOM
      1 O         118.4422  153.8104  144.5562 O.3     1  UNL111     -0.4393
      2 O         123.4934  152.7839  147.9184 O.3     1  UNL111     -0.5834
      3 N         117.4166  150.6090  147.1517 N.4     1  UNL111      0.4310
      4 C         118.1920  152.9665  146.7805 C.3     1  UNL111     -0.0171
      5 C         119.0552  153.8785  145.8507 C.3     1  UNL111      0.0414
      6 C         119.0227  155.3523  146.3157 C.3     1  UNL111     -0.0256
      7 C         116.7739  153.5511  146.9710 C.3     1  UNL111     -0.0462
      8 C         117.5999  155.8820  146.4754 C.3     1  UNL111     -0.0530
      9 C         116.7975  155.0069  147.4268 C.3     1  UNL111     -0.0576
     10 C         118.1213  151.5373  146.2030 C.3     1  UNL111     -0.0281
     11 C         120.4987  153.3707  145.7669 C.ar    1  UNL111     -0.0278
     12 C         121.3223  153.3599  146.9141 C.ar    1  UNL111     -0.0168
     13 C         121.0320  152.8651  144.5681 C.ar    1  UNL111     -0.0664
     14 C         122.6260  152.8584  146.8654 C.ar    1  UNL111      0.0355
     15 C         122.3313  152.3599  144.5182 C.ar    1  UNL111     -0.0678
     16 C         117.4375  149.1850  146.7170 C.3     1  UNL111     -0.0417
     17 C         123.1197  152.3509  145.6654 C.ar    1  UNL111     -0.0311
     18 C         123.1836  153.5581  149.0706 C.3     1  UNL111      0.0293
     19 H         118.8050  154.5434  144.0219 H       1  UNL111      0.2418
     20 H         116.4364  150.8996  147.2564 H       1  UNL111      0.1333
     21 H         117.8457  150.6770  148.0836 H       1  UNL111      0.1333
     22 H         118.6603  152.9187  147.7732 H       1  UNL111      0.0677
     23 H         119.5477  155.9879  145.5906 H       1  UNL111      0.0490
     24 H         119.5429  155.4732  147.2736 H       1  UNL111      0.0490
     25 H         116.2224  152.9722  147.7201 H       1  UNL111      0.0385
     26 H         116.2070  153.4752  146.0345 H       1  UNL111      0.0385
     27 H         117.1018  155.9247  145.4994 H       1  UNL111      0.0344
     28 H         117.6324  156.9082  146.8589 H       1  UNL111      0.0344
     29 H         117.2287  155.0670  148.4337 H       1  UNL111      0.0329
     30 H         115.7715  155.3855  147.4970 H       1  UNL111      0.0329
     31 H         117.5668  151.4982  145.2594 H       1  UNL111      0.0759
     32 H         119.1176  151.1107  146.0569 H       1  UNL111      0.0759
     33 H         120.9315  153.7430  147.8515 H       1  UNL111      0.1146
     34 H         120.4460  152.8480  143.6509 H       1  UNL111      0.0922
     35 H         122.7340  151.9756  143.5835 H       1  UNL111      0.0912
     36 H         116.9437  149.1152  145.7450 H       1  UNL111      0.0661
     37 H         116.8927  148.6076  147.4671 H       1  UNL111      0.0661
     38 H         118.4780  148.8567  146.6620 H       1  UNL111      0.0661
     39 H         124.1336  151.9582  145.6211 H       1  UNL111      0.1103
     40 H         124.0407  153.5073  149.7488 H       1  UNL111      0.1069
     41 H         122.3178  153.1423  149.5960 H       1  UNL111      0.1069
     42 H         123.0209  154.6102  148.8138 H       1  UNL111      0.1069
@<TRIPOS>UNITY_ATOM_ATTR
3 1
charge 1
@<TRIPOS>BOND
     1     1     5    1
     2     2    14    1
     3     2    18    1
     4     3    10    1
     5     3    16    1
     6     4     5    1
     7     4     7    1
     8     4    10    1
     9     5     6    1
    10     5    11    1
    11     6     8    1
    12     7     9    1
    13     8     9    1
    14    11    12   ar
    15    11    13   ar
    16    12    14   ar
    17    13    15   ar
    18    14    17   ar
    19    15    17   ar
    20     1    19    1
    21     3    20    1
    22     3    21    1
    23     4    22    1
    24     6    23    1
    25     6    24    1
    26     7    25    1
    27     7    26    1
    28     8    27    1
    29     8    28    1
    30     9    29    1
    31     9    30    1
    32    10    31    1
    33    10    32    1
    34    12    33    1
    35    13    34    1
    36    15    35    1
    37    16    36    1
    38    16    37    1
    39    16    38    1
    40    17    39    1
    41    18    40    1
    42    18    41    1
    43    18    42    1
@<TRIPOS>MOLECULE
40463214
 42 43 0 0 0
SMALL
GASTEIGER

@<TRIPOS>ATOM
      1 O         119.1964  154.4688  144.6712 O.3     1  UNL111     -0.4393
      2 O         123.7069  152.1540  145.5629 O.3     1  UNL111     -0.5834
      3 N         117.7473  150.4247  147.0164 N.4     1  UNL111      0.4310
      4 C         118.3296  152.5719  145.8704 C.3     1  UNL111     -0.0171
      5 C         119.0633  153.9490  146.0027 C.3     1  UNL111      0.0414
      6 C         118.1892  154.9579  146.7838 C.3     1  UNL111     -0.0256
      7 C         116.9200  152.7737  145.2661 C.3     1  UNL111     -0.0462
      8 C         116.7899  155.1171  146.1856 C.3     1  UNL111     -0.0530
      9 C         116.0765  153.7780  146.0450 C.3     1  UNL111     -0.0576
     10 C         118.3092  151.8047  147.2058 C.3     1  UNL111     -0.0281
     11 C         120.4852  153.7742  146.5394 C.ar    1  UNL111     -0.0278
     12 C         121.4340  153.0723  145.7601 C.ar    1  UNL111     -0.0168
     13 C         120.8913  154.2554  147.7941 C.ar    1  UNL111     -0.0664
     14 C         122.7291  152.8387  146.2267 C.ar    1  UNL111      0.0355
     15 C         122.1843  154.0195  148.2646 C.ar    1  UNL111     -0.0678
     16 C         117.8631  149.5538  148.2187 C.3     1  UNL111     -0.0417
     17 C         123.0925  153.3046  147.4879 C.ar    1  UNL111     -0.0311
     18 C         123.5120  151.9377  144.1701 C.3     1  UNL111      0.0293
     19 H         119.8095  155.2276  144.7070 H       1  UNL111      0.2418
     20 H         118.2302  149.9650  146.2318 H       1  UNL111      0.1333
     21 H         116.7559  150.4785  146.7491 H       1  UNL111      0.1333
     22 H         118.8765  151.9549  145.1427 H       1  UNL111      0.0677
     23 H         118.6666  155.9465  146.7853 H       1  UNL111      0.0490
     24 H         118.0812  154.6505  147.8309 H       1  UNL111      0.0490
     25 H         116.3815  151.8236  145.1909 H       1  UNL111      0.0385
     26 H         117.0234  153.1307  144.2329 H       1  UNL111      0.0385
     27 H         116.8598  155.5995  145.2031 H       1  UNL111      0.0344
     28 H         116.1950  155.7844  146.8199 H       1  UNL111      0.0344
     29 H         115.8391  153.3791  147.0378 H       1  UNL111      0.0329
     30 H         115.1199  153.9278  145.5314 H       1  UNL111      0.0329
     31 H         119.3186  151.6587  147.6003 H       1  UNL111      0.0759
     32 H         117.6953  152.2943  147.9672 H       1  UNL111      0.0759
     33 H         121.1375  152.7161  144.7766 H       1  UNL111      0.1146
     34 H         120.2258  154.8280  148.4355 H       1  UNL111      0.0922
     35 H         122.4918  154.4012  149.2362 H       1  UNL111      0.0912
     36 H         118.9226  149.4358  148.4576 H       1  UNL111      0.0661
     37 H         117.4171  148.5893  147.9665 H       1  UNL111      0.0661
     38 H         117.3182  150.0274  149.0386 H       1  UNL111      0.0661
     39 H         124.1002  153.1282  147.8590 H       1  UNL111      0.1103
     40 H         124.4362  151.5152  143.7645 H       1  UNL111      0.1069
     41 H         123.3134  152.8772  143.6434 H       1  UNL111      0.1069
     42 H         122.7103  151.2121  143.9984 H       1  UNL111      0.1069
@<TRIPOS>UNITY_ATOM_ATTR
3 1
charge 1
@<TRIPOS>BOND
     1     1     5    1
     2     2    14    1
     3     2    18    1
     4     3    10    1
     5     3    16    1
     6     4     5    1
     7     4     7    1
     8     4    10    1
     9     5     6    1
    10     5    11    1
    11     6     8    1
    12     7     9    1
    13     8     9    1
    14    11    12   ar
    15    11    13   ar
    16    12    14   ar
    17    13    15   ar
    18    14    17   ar
    19    15    17   ar
    20     1    19    1
    21     3    20    1
    22     3    21    1
    23     4    22    1
    24     6    23    1
    25     6    24    1
    26     7    25    1
    27     7    26    1
    28     8    27    1
    29     8    28    1
    30     9    29    1
    31     9    30    1
    32    10    31    1
    33    10    32    1
    34    12    33    1
    35    13    34    1
    36    15    35    1
    37    16    36    1
    38    16    37    1
    39    16    38    1
    40    17    39    1
    41    18    40    1
    42    18    41    1
    43    18    42    1
@<TRIPOS>MOLECULE
71316033
 42 43 0 0 0
SMALL
GASTEIGER

@<TRIPOS>ATOM
      1 S         122.4064  154.8797  146.8098 S.3     1  UNL111      0.0028
      2 O         117.1214  151.6549  145.5140 O.3     1  UNL111     -0.4393
      3 O         122.8062  153.3337  146.3984 O.2     1  UNL111     -0.4323
      4 O         123.6157  155.6501  146.5642 O.co2   1  UNL111     -0.2187
      5 O         121.2832  155.2501  145.9301 O.2     1  UNL111     -0.3437
      6 O         121.9870  154.7972  148.2055 O.2     1  UNL111     -0.3437
      7 N         118.8102  155.6398  145.6499 N.4     1  UNL111      0.4310
      8 C         118.0855  152.0592  146.4958 C.3     1  UNL111      0.0417
      9 C         117.8743  153.5953  146.7079 C.3     1  UNL111     -0.0170
     10 C         117.8233  151.2890  147.8064 C.3     1  UNL111     -0.0256
     11 C         116.4859  153.8864  147.3139 C.3     1  UNL111     -0.0462
     12 C         116.4518  151.6073  148.4028 C.3     1  UNL111     -0.0530
     13 C         116.2611  153.1062  148.6063 C.3     1  UNL111     -0.0576
     14 C         118.0505  154.3811  145.3917 C.3     1  UNL111     -0.0281
     15 C         119.4974  151.7740  145.9801 C.3     1  UNL111     -0.0252
     16 C         120.5856  152.4094  146.5962 C.3     1  UNL111     -0.0006
     17 C         119.7533  151.0101  144.8306 C.3     1  UNL111     -0.0659
     18 C         121.8274  152.4723  145.9702 C.3     1  UNL111      0.1030
     19 C         121.0403  150.9537  144.2822 C.3     1  UNL111     -0.0653
     20 C         118.8610  156.6021  144.5321 C.3     1  UNL111     -0.0417
     21 C         122.0736  151.7082  144.8368 C.3     1  UNL111     -0.0149
     22 H         117.0159  150.6895  145.5951 H       1  UNL111      0.2418
     23 H         119.8247  155.3808  145.8127 H       1  UNL111      0.1333
     24 H         118.5502  156.1005  146.5266 H       1  UNL111      0.1333
     25 H         118.6009  153.9582  147.4459 H       1  UNL111      0.0677
     26 H         118.5942  151.5256  148.5510 H       1  UNL111      0.0490
     27 H         117.8792  150.2074  147.6279 H       1  UNL111      0.0490
     28 H         115.6953  153.6314  146.5970 H       1  UNL111      0.0385
     29 H         116.3896  154.9592  147.5209 H       1  UNL111      0.0385
     30 H         116.3426  151.0905  149.3631 H       1  UNL111      0.0344
     31 H         115.6623  151.2224  147.7460 H       1  UNL111      0.0344
     32 H         115.2498  153.3003  148.9811 H       1  UNL111      0.0329
     33 H         116.9591  153.4625  149.3738 H       1  UNL111      0.0329
     34 H         118.6163  153.8458  144.6248 H       1  UNL111      0.0759
     35 H         117.0845  154.6725  144.9649 H       1  UNL111      0.0759
     36 H         120.4520  152.9523  147.5290 H       1  UNL111      0.1177
     37 H         118.9537  150.4805  144.3189 H       1  UNL111      0.0923
     38 H         121.2246  150.3655  143.3864 H       1  UNL111      0.0915
     39 H         119.2779  156.0982  143.6568 H       1  UNL111      0.0661
     40 H         119.5009  157.4334  144.8371 H       1  UNL111      0.0661
     41 H         117.8456  156.9553  144.3380 H       1  UNL111      0.0661
     42 H         123.0530  151.7310  144.3668 H       1  UNL111      0.1134
@<TRIPOS>UNITY_ATOM_ATTR
4 1
charge -1
7 1
charge 1
@<TRIPOS>BOND
     1     1     3    1
     2     1     4    1
     3     1     5    2
     4     1     6    2
     5     2     8    1
     6     3    18    1
     7     7    14    1
     8     7    20    1
     9     8     9    1
    10     8    10    1
    11     8    15    1
    12     9    11    1
    13     9    14    1
    14    10    12    1
    15    11    13    1
    16    12    13    1
    17    15    16   ar
    18    15    17   ar
    19    16    18   ar
    20    17    19   ar
    21    18    21   ar
    22    19    21   ar
    23     2    22    1
    24     7    23    1
    25     7    24    1
    26     9    25    1
    27    10    26    1
    28    10    27    1
    29    11    28    1
    30    11    29    1
    31    12    30    1
    32    12    31    1
    33    13    32    1
    34    13    33    1
    35    14    34    1
    36    14    35    1
    37    16    36    1
    38    17    37    1
    39    19    38    1
    40    20    39    1
    41    20    40    1
    42    20    41    1
    43    21    42    1
@<TRIPOS>MOLECULE
129627216
 61 63 0 0 0
SMALL
GASTEIGER

@<TRIPOS>ATOM
      1 O         116.7100  152.6036  144.3373 O.3     1  UNL111     -0.4393
      2 O         121.3182  150.5000  145.6813 O.2     1  UNL111     -0.5328
      3 O         121.7545  152.7948  145.9674 O.3     1  UNL111     -0.3730
      4 O         124.0457  149.9441  146.3607 O.3     1  UNL111     -0.4216
      5 O         124.4844  152.0371  148.0554 O.3     1  UNL111     -0.4308
      6 O         124.7328  154.6968  147.0797 O.3     1  UNL111     -0.4313
      7 O         120.6484  155.1838  145.9765 O.co2   1  UNL111     -0.5544
      8 O         122.5861  156.1897  146.6054 O.co2   1  UNL111     -0.5544
      9 N         117.8274  155.7686  148.0678 N.4     1  UNL111      0.4247
     10 C         117.3983  154.1870  146.0440 C.3     1  UNL111     -0.0172
     11 C         116.8665  152.7247  145.7649 C.3     1  UNL111      0.0415
     12 C         116.3631  155.2256  145.5476 C.3     1  UNL111     -0.0462
     13 C         115.4253  152.5637  146.3299 C.3     1  UNL111     -0.0256
     14 C         114.9833  155.0370  146.1623 C.3     1  UNL111     -0.0576
     15 C         114.4511  153.6459  145.8670 C.3     1  UNL111     -0.0530
     16 C         117.8490  154.3488  147.5165 C.3     1  UNL111     -0.0326
     17 C         117.8169  151.6025  146.2197 C.3     1  UNL111     -0.0274
     18 C         119.1492  151.5744  145.7645 C.3     1  UNL111     -0.0134
     19 C         117.4013  150.5365  147.0413 C.3     1  UNL111     -0.0664
     20 C         123.5991  151.2547  145.9626 C.3     1  UNL111      0.0990
     21 C         122.1269  151.4864  146.3606 C.3     1  UNL111      0.1464
     22 C         124.4795  152.3170  146.6382 C.3     1  UNL111      0.0797
     23 C         120.0239  150.5436  146.1371 C.3     1  UNL111      0.0550
     24 C         123.9542  153.7410  146.3542 C.3     1  UNL111      0.0796
     25 C         122.4660  153.8108  146.6973 C.3     1  UNL111      0.1101
     26 C         117.9336  155.7669  149.5640 C.3     1  UNL111     -0.0463
     27 C         118.9038  156.6601  147.4861 C.3     1  UNL111     -0.0463
     28 C         118.2706  149.4955  147.3907 C.3     1  UNL111     -0.0675
     29 C         119.5820  149.4938  146.9311 C.3     1  UNL111     -0.0277
     30 C         121.8596  155.1880  146.3563 C.2     1  UNL111      0.0700
     31 H         117.3524  151.9549  144.0004 H       1  UNL111      0.2418
     32 H         123.4063  149.3219  145.9638 H       1  UNL111      0.2455
     33 H         124.8134  151.1199  148.1233 H       1  UNL111      0.2420
     34 H         124.2259  155.5442  147.0081 H       1  UNL111      0.2419
     35 H         116.9350  156.2004  147.8205 H       1  UNL111      0.1292
     36 H         118.2820  154.3490  145.4147 H       1  UNL111      0.0678
     37 H         116.2738  155.1417  144.4561 H       1  UNL111      0.0385
     38 H         116.7050  156.2500  145.7199 H       1  UNL111      0.0385
     39 H         115.4378  152.5580  147.4267 H       1  UNL111      0.0490
     40 H         115.0029  151.6031  146.0056 H       1  UNL111      0.0490
     41 H         114.2946  155.7857  145.7545 H       1  UNL111      0.0329
     42 H         115.0196  155.1965  147.2456 H       1  UNL111      0.0329
     43 H         113.4855  153.5072  146.3670 H       1  UNL111      0.0344
     44 H         114.2637  153.5426  144.7912 H       1  UNL111      0.0344
     45 H         117.1750  153.7850  148.1695 H       1  UNL111      0.0760
     46 H         118.8607  153.9578  147.6729 H       1  UNL111      0.0760
     47 H         119.5185  152.3605  145.1049 H       1  UNL111      0.1150
     48 H         116.3828  150.4656  147.4141 H       1  UNL111      0.0922
     49 H         123.7080  151.3243  144.8736 H       1  UNL111      0.1390
     50 H         121.9989  151.3483  147.4444 H       1  UNL111      0.1970
     51 H         125.5225  152.2266  146.3141 H       1  UNL111      0.1254
     52 H         124.0926  153.9491  145.2855 H       1  UNL111      0.1249
     53 H         122.2981  153.6740  147.7741 H       1  UNL111      0.1368
     54 H         118.8748  155.2901  149.8519 H       1  UNL111      0.0661
     55 H         117.0786  155.2154  149.9644 H       1  UNL111      0.0661
     56 H         117.8958  156.8026  149.9123 H       1  UNL111      0.0661
     57 H         119.8657  156.3415  147.8875 H       1  UNL111      0.0661
     58 H         118.6915  157.6789  147.8251 H       1  UNL111      0.0661
     59 H         118.8337  156.6364  146.3994 H       1  UNL111      0.0661
     60 H         117.9151  148.6765  148.0116 H       1  UNL111      0.0913
     61 H         120.2536  148.6813  147.1916 H       1  UNL111      0.1107
@<TRIPOS>UNITY_ATOM_ATTR
7 1
charge -1
9 1
charge 1
@<TRIPOS>BOND
     1     1    11    1
     2     2    21    1
     3     2    23    1
     4     3    21    1
     5     3    25    1
     6     4    20    1
     7     5    22    1
     8     6    24    1
     9     7    30   ar
    10     8    30   ar
    11     9    16    1
    12     9    26    1
    13     9    27    1
    14    10    11    1
    15    10    12    1
    16    10    16    1
    17    11    13    1
    18    11    17    1
    19    12    14    1
    20    13    15    1
    21    14    15    1
    22    17    18   ar
    23    17    19   ar
    24    18    23   ar
    25    19    28   ar
    26    20    21    1
    27    20    22    1
    28    22    24    1
    29    23    29   ar
    30    24    25    1
    31    25    30    1
    32    28    29   ar
    33     1    31    1
    34     4    32    1
    35     5    33    1
    36     6    34    1
    37     9    35    1
    38    10    36    1
    39    12    37    1
    40    12    38    1
    41    13    39    1
    42    13    40    1
    43    14    41    1
    44    14    42    1
    45    15    43    1
    46    15    44    1
    47    16    45    1
    48    16    46    1
    49    18    47    1
    50    19    48    1
    51    20    49    1
    52    21    50    1
    53    22    51    1
    54    24    52    1
    55    25    53    1
    56    26    54    1
    57    26    55    1
    58    26    56    1
    59    27    57    1
    60    27    58    1
    61    27    59    1
    62    28    60    1
    63    29    61    1
@<TRIPOS>MOLECULE
12149037
 48 49 0 0 0
SMALL
GASTEIGER

@<TRIPOS>ATOM
      1 O         120.6291  154.0696  144.7866 O.3     1  UNL111     -0.4511
      2 O         116.0836  152.3369  145.3856 O.3     1  UNL111     -0.5834
      3 N         121.8844  150.3871  146.4995 N.4     1  UNL111      0.4247
      4 C         120.5669  154.1079  146.2304 C.3     1  UNL111      0.0421
      5 C         121.4967  152.9235  146.7070 C.3     1  UNL111     -0.0165
      6 C         121.1348  155.4500  146.7761 C.3     1  UNL111     -0.0248
      7 C         122.9766  153.1987  146.3509 C.3     1  UNL111     -0.0460
      8 C         122.5927  155.6860  146.3861 C.3     1  UNL111     -0.0529
      9 C         123.4694  154.5438  146.8709 C.3     1  UNL111     -0.0576
     10 C         121.0296  151.5811  146.0927 C.3     1  UNL111     -0.0324
     11 C         119.1314  153.8328  146.7292 C.ar    1  UNL111     -0.0269
     12 C         118.1709  153.2364  145.8855 C.ar    1  UNL111     -0.0166
     13 C         118.7432  154.0967  148.0529 C.ar    1  UNL111     -0.0663
     14 C         120.0723  155.1852  144.0903 C.3     1  UNL111      0.0010
     15 C         121.4995  149.1682  145.6976 C.3     1  UNL111     -0.0463
     16 C         121.8448  150.0915  147.9724 C.3     1  UNL111     -0.0463
     17 C         116.8783  152.9298  146.3266 C.ar    1  UNL111      0.0355
     18 C         117.4513  153.8012  148.4980 C.ar    1  UNL111     -0.0678
     19 C         116.5202  153.2189  147.6383 C.ar    1  UNL111     -0.0311
     20 C         114.7158  152.1426  145.7303 C.3     1  UNL111      0.0293
     21 H         122.8575  150.5907  146.2425 H       1  UNL111      0.1292
     22 H         121.4241  152.8575  147.8007 H       1  UNL111      0.0680
     23 H         121.0891  155.4758  147.8708 H       1  UNL111      0.0492
     24 H         120.5321  156.2980  146.4299 H       1  UNL111      0.0492
     25 H         123.1143  153.1573  145.2631 H       1  UNL111      0.0385
     26 H         123.6234  152.4262  146.7802 H       1  UNL111      0.0385
     27 H         122.9407  156.6266  146.8285 H       1  UNL111      0.0345
     28 H         122.6940  155.7923  145.3010 H       1  UNL111      0.0345
     29 H         124.5026  154.7082  146.5444 H       1  UNL111      0.0329
     30 H         123.4816  154.5285  147.9678 H       1  UNL111      0.0329
     31 H         120.0116  151.3221  146.3958 H       1  UNL111      0.0760
     32 H         121.0741  151.6221  144.9987 H       1  UNL111      0.0760
     33 H         118.4179  152.9962  144.8522 H       1  UNL111      0.1146
     34 H         119.4288  154.5375  148.7721 H       1  UNL111      0.0923
     35 H         119.9321  154.8895  143.0468 H       1  UNL111      0.0826
     36 H         120.7629  156.0316  144.1040 H       1  UNL111      0.0826
     37 H         119.1039  155.4882  144.4965 H       1  UNL111      0.0826
     38 H         120.4634  148.9092  145.9315 H       1  UNL111      0.0661
     39 H         122.1786  148.3556  145.9690 H       1  UNL111      0.0661
     40 H         121.6164  149.4075  144.6373 H       1  UNL111      0.0661
     41 H         120.8047  149.9380  148.2715 H       1  UNL111      0.0661
     42 H         122.2914  150.9313  148.5082 H       1  UNL111      0.0661
     43 H         122.4396  149.1924  148.1555 H       1  UNL111      0.0661
     44 H         117.1666  154.0286  149.5238 H       1  UNL111      0.0912
     45 H         115.5292  153.0031  148.0249 H       1  UNL111      0.1103
     46 H         114.2071  151.7264  144.8555 H       1  UNL111      0.1069
     47 H         114.2307  153.0923  145.9791 H       1  UNL111      0.1069
     48 H         114.6170  151.4211  146.5478 H       1  UNL111      0.1069
@<TRIPOS>UNITY_ATOM_ATTR
3 1
charge 1
@<TRIPOS>BOND
     1     1     4    1
     2     1    14    1
     3     2    17    1
     4     2    20    1
     5     3    10    1
     6     3    15    1
     7     3    16    1
     8     4     5    1
     9     4     6    1
    10     4    11    1
    11     5     7    1
    12     5    10    1
    13     6     8    1
    14     7     9    1
    15     8     9    1
    16    11    12   ar
    17    11    13   ar
    18    12    17   ar
    19    13    18   ar
    20    17    19   ar
    21    18    19   ar
    22     3    21    1
    23     5    22    1
    24     6    23    1
    25     6    24    1
    26     7    25    1
    27     7    26    1
    28     8    27    1
    29     8    28    1
    30     9    29    1
    31     9    30    1
    32    10    31    1
    33    10    32    1
    34    12    33    1
    35    13    34    1
    36    14    35    1
    37    14    36    1
    38    14    37    1
    39    15    38    1
    40    15    39    1
    41    15    40    1
    42    16    41    1
    43    16    42    1
    44    16    43    1
    45    18    44    1
    46    19    45    1
    47    20    46    1
    48    20    47    1
    49    20    48    1
@<TRIPOS>MOLECULE
130829
 42 43 0 0 0
SMALL
GASTEIGER

@<TRIPOS>ATOM
      1 O         119.1493  154.6415  144.9014 O.3     1  UNL111     -0.4393
      2 O         123.4549  152.3352  148.5605 O.3     1  UNL111     -0.5645
      3 N         117.5916  150.8100  145.9589 N.4     1  UNL111      0.4247
      4 C         118.4856  153.1196  146.6349 C.3     1  UNL111     -0.0172
      5 C         119.5105  154.2288  146.2263 C.3     1  UNL111      0.0414
      6 C         117.0605  153.7023  146.7645 C.3     1  UNL111     -0.0462
      7 C         119.4001  155.4651  147.1485 C.3     1  UNL111     -0.0256
      8 C         117.0063  154.9245  147.6762 C.3     1  UNL111     -0.0576
      9 C         117.9754  156.0077  147.2265 C.3     1  UNL111     -0.0530
     10 C         118.5185  151.9658  145.6050 C.3     1  UNL111     -0.0326
     11 C         120.9404  153.6771  146.2228 C.ar    1  UNL111     -0.0280
     12 C         121.5621  153.2828  147.4244 C.ar    1  UNL111     -0.0178
     13 C         121.6563  153.4978  145.0231 C.ar    1  UNL111     -0.0665
     14 C         117.9880  150.0824  147.2132 C.3     1  UNL111     -0.0463
     15 C         117.4773  149.8516  144.7990 C.3     1  UNL111     -0.0463
     16 C         122.8408  152.7287  147.4100 C.ar    1  UNL111      0.0354
     17 C         122.9370  152.9383  145.0223 C.ar    1  UNL111     -0.0681
     18 C         123.5273  152.5464  146.2190 C.ar    1  UNL111     -0.0321
     19 H         119.6362  155.4663  144.7098 H       1  UNL111      0.2418
     20 H         123.0337  152.7721  149.3189 H       1  UNL111      0.3342
     21 H         116.6476  151.1895  146.0986 H       1  UNL111      0.1292
     22 H         118.7742  152.7329  147.6200 H       1  UNL111      0.0678
     23 H         116.3781  152.9498  147.1744 H       1  UNL111      0.0385
     24 H         116.6737  153.9732  145.7740 H       1  UNL111      0.0385
     25 H         120.0551  156.2670  146.7837 H       1  UNL111      0.0490
     26 H         119.7309  155.2278  148.1666 H       1  UNL111      0.0490
     27 H         117.2432  154.6232  148.7040 H       1  UNL111      0.0329
     28 H         115.9868  155.3265  147.6897 H       1  UNL111      0.0329
     29 H         117.6673  156.4014  146.2506 H       1  UNL111      0.0344
     30 H         117.9413  156.8466  147.9310 H       1  UNL111      0.0344
     31 H         118.1939  152.3225  144.6209 H       1  UNL111      0.0760
     32 H         119.5163  151.5271  145.5060 H       1  UNL111      0.0760
     33 H         121.0485  153.3959  148.3750 H       1  UNL111      0.1143
     34 H         121.2282  153.7823  144.0633 H       1  UNL111      0.0922
     35 H         119.0181  149.7328  147.1054 H       1  UNL111      0.0661
     36 H         117.3032  149.2409  147.3501 H       1  UNL111      0.0661
     37 H         117.8876  150.7660  148.0583 H       1  UNL111      0.0661
     38 H         118.4632  149.4214  144.6034 H       1  UNL111      0.0661
     39 H         117.1108  150.4083  143.9325 H       1  UNL111      0.0661
     40 H         116.7563  149.0757  145.0699 H       1  UNL111      0.0661
     41 H         123.4774  152.8107  144.0867 H       1  UNL111      0.0912
     42 H         124.5245  152.1137  146.2241 H       1  UNL111      0.1100
@<TRIPOS>UNITY_ATOM_ATTR
3 1
charge 1
@<TRIPOS>BOND
     1     1     5    1
     2     2    16    1
     3     3    10    1
     4     3    14    1
     5     3    15    1
     6     4     5    1
     7     4     6    1
     8     4    10    1
     9     5     7    1
    10     5    11    1
    11     6     8    1
    12     7     9    1
    13     8     9    1
    14    11    12   ar
    15    11    13   ar
    16    12    16   ar
    17    13    17   ar
    18    16    18   ar
    19    17    18   ar
    20     1    19    1
    21     2    20    1
    22     3    21    1
    23     4    22    1
    24     6    23    1
    25     6    24    1
    26     7    25    1
    27     7    26    1
    28     8    27    1
    29     8    28    1
    30     9    29    1
    31     9    30    1
    32    10    31    1
    33    10    32    1
    34    12    33    1
    35    13    34    1
    36    14    35    1
    37    14    36    1
    38    14    37    1
    39    15    38    1
    40    15    39    1
    41    15    40    1
    42    17    41    1
    43    18    42    1
@<TRIPOS>MOLECULE
9838803
 42 43 0 0 0
SMALL
GASTEIGER

@<TRIPOS>ATOM
      1 O         119.1010  154.3669  148.1411 O.3     1  UNL111     -0.4393
      2 O         123.5215  152.6128  144.3164 O.3     1  UNL111     -0.5645
      3 N         117.5299  150.8008  146.4000 N.4     1  UNL111      0.4247
      4 C         118.4880  153.1701  146.1529 C.3     1  UNL111     -0.0172
      5 C         119.5110  154.1735  146.7806 C.3     1  UNL111      0.0414
      6 C         117.0776  153.7958  146.0705 C.3     1  UNL111     -0.0462
      7 C         119.4561  155.5483  146.0750 C.3     1  UNL111     -0.0256
      8 C         117.0777  155.1540  145.3754 C.3     1  UNL111     -0.0576
      9 C         118.0437  156.1263  146.0355 C.3     1  UNL111     -0.0530
     10 C         118.4640  151.8588  146.9732 C.3     1  UNL111     -0.0326
     11 C         120.9315  153.5994  146.7468 C.ar    1  UNL111     -0.0280
     12 C         121.5967  153.3974  145.5210 C.ar    1  UNL111     -0.0178
     13 C         121.5949  153.2089  147.9264 C.ar    1  UNL111     -0.0665
     14 C         117.3661  149.6594  147.3733 C.3     1  UNL111     -0.0463
     15 C         117.9511  150.2921  145.0497 C.3     1  UNL111     -0.0463
     16 C         122.8659  152.8225  145.4919 C.ar    1  UNL111      0.0354
     17 C         122.8666  152.6309  147.8831 C.ar    1  UNL111     -0.0681
     18 C         123.5002  152.4311  146.6613 C.ar    1  UNL111     -0.0321
     19 H         119.5908  155.1382  148.4866 H       1  UNL111      0.2418
     20 H         123.1372  153.1770  143.6255 H       1  UNL111      0.3342
     21 H         116.5967  151.2186  146.3035 H       1  UNL111      0.1292
     22 H         118.8106  152.9486  145.1281 H       1  UNL111      0.0678
     23 H         116.6557  153.9052  147.0774 H       1  UNL111      0.0385
     24 H         116.4013  153.1368  145.5151 H       1  UNL111      0.0385
     25 H         119.8245  155.4771  145.0446 H       1  UNL111      0.0490
     26 H         120.1073  156.2642  146.5933 H       1  UNL111      0.0490
     27 H         116.0655  155.5739  145.3918 H       1  UNL111      0.0329
     28 H         117.3509  155.0236  144.3210 H       1  UNL111      0.0329
     29 H         118.0504  157.0713  145.4804 H       1  UNL111      0.0344
     30 H         117.7023  156.3585  147.0513 H       1  UNL111      0.0344
     31 H         119.4500  151.3869  147.0276 H       1  UNL111      0.0760
     32 H         118.1114  152.0517  147.9927 H       1  UNL111      0.0760
     33 H         121.1243  153.6773  144.5837 H       1  UNL111      0.1143
     34 H         121.1316  153.3389  148.9030 H       1  UNL111      0.0922
     35 H         118.3384  149.1805  147.5163 H       1  UNL111      0.0661
     36 H         116.6400  148.9578  146.9542 H       1  UNL111      0.0661
     37 H         116.9846  150.0661  148.3137 H       1  UNL111      0.0661
     38 H         118.9723  149.9090  145.1219 H       1  UNL111      0.0661
     39 H         117.8851  151.1129  144.3329 H       1  UNL111      0.0661
     40 H         117.2579  149.5005  144.7521 H       1  UNL111      0.0661
     41 H         123.3662  152.3390  148.8044 H       1  UNL111      0.0912
     42 H         124.4908  151.9850  146.6225 H       1  UNL111      0.1100
@<TRIPOS>UNITY_ATOM_ATTR
3 1
charge 1
@<TRIPOS>BOND
     1     1     5    1
     2     2    16    1
     3     3    10    1
     4     3    14    1
     5     3    15    1
     6     4     5    1
     7     4     6    1
     8     4    10    1
     9     5     7    1
    10     5    11    1
    11     6     8    1
    12     7     9    1
    13     8     9    1
    14    11    12   ar
    15    11    13   ar
    16    12    16   ar
    17    13    17   ar
    18    16    18   ar
    19    17    18   ar
    20     1    19    1
    21     2    20    1
    22     3    21    1
    23     4    22    1
    24     6    23    1
    25     6    24    1
    26     7    25    1
    27     7    26    1
    28     8    27    1
    29     8    28    1
    30     9    29    1
    31     9    30    1
    32    10    31    1
    33    10    32    1
    34    12    33    1
    35    13    34    1
    36    14    35    1
    37    14    36    1
    38    14    37    1
    39    15    38    1
    40    15    39    1
    41    15    40    1
    42    17    41    1
    43    18    42    1
@<TRIPOS>MOLECULE
198555
 42 43 0 0 0
SMALL
GASTEIGER

@<TRIPOS>ATOM
      1 O         119.1969  154.4711  144.6717 O.3     1  UNL111     -0.4393
      2 O         123.7066  152.1534  145.5656 O.3     1  UNL111     -0.5834
      3 N         117.7486  150.4249  147.0136 N.4     1  UNL111      0.4310
      4 C         118.3301  152.5733  145.8694 C.3     1  UNL111     -0.0171
      5 C         119.0634  153.9505  146.0029 C.3     1  UNL111      0.0414
      6 C         118.1889  154.9587  146.7843 C.3     1  UNL111     -0.0256
      7 C         116.9206  152.7751  145.2649 C.3     1  UNL111     -0.0462
      8 C         116.7897  155.1178  146.1858 C.3     1  UNL111     -0.0530
      9 C         116.0767  153.7787  146.0443 C.3     1  UNL111     -0.0576
     10 C         118.3096  151.8051  147.2043 C.3     1  UNL111     -0.0281
     11 C         120.4852  153.7757  146.5399 C.ar    1  UNL111     -0.0278
     12 C         121.4340  153.0729  145.7613 C.ar    1  UNL111     -0.0168
     13 C         120.8913  154.2579  147.7942 C.ar    1  UNL111     -0.0664
     14 C         122.7289  152.8391  146.2284 C.ar    1  UNL111      0.0355
     15 C         122.1842  154.0221  148.2651 C.ar    1  UNL111     -0.0678
     16 C         117.8648  149.5530  148.2150 C.3     1  UNL111     -0.0417
     17 C         123.0923  153.3063  147.4891 C.ar    1  UNL111     -0.0311
     18 C         123.5099  151.9311  144.1740 C.3     1  UNL111      0.0293
     19 H         119.8103  155.2296  144.7081 H       1  UNL111      0.2418
     20 H         118.2319  149.9662  146.2285 H       1  UNL111      0.1333
     21 H         116.7572  150.4784  146.7462 H       1  UNL111      0.1333
     22 H         118.8772  151.9569  145.1413 H       1  UNL111      0.0677
     23 H         118.6659  155.9474  146.7864 H       1  UNL111      0.0490
     24 H         118.0807  154.6506  147.8312 H       1  UNL111      0.0490
     25 H         116.3823  151.8249  145.1890 H       1  UNL111      0.0385
     26 H         117.0240  153.1328  144.2320 H       1  UNL111      0.0385
     27 H         116.8596  155.6009  145.2036 H       1  UNL111      0.0344
     28 H         116.1945  155.7846  146.8204 H       1  UNL111      0.0344
     29 H         115.8391  153.3791  147.0368 H       1  UNL111      0.0329
     30 H         115.1201  153.9285  145.5305 H       1  UNL111      0.0329
     31 H         119.3188  151.6595  147.5991 H       1  UNL111      0.0759
     32 H         117.6950  152.2938  147.9658 H       1  UNL111      0.0759
     33 H         121.1376  152.7162  144.7780 H       1  UNL111      0.1146
     34 H         120.2258  154.8312  148.4350 H       1  UNL111      0.0922
     35 H         122.4916  154.4048  149.2363 H       1  UNL111      0.0912
     36 H         118.9244  149.4354  148.4539 H       1  UNL111      0.0661
     37 H         117.4195  148.5884  147.9619 H       1  UNL111      0.0661
     38 H         117.3196  150.0254  149.0353 H       1  UNL111      0.0661
     39 H         124.0999  153.1299  147.8606 H       1  UNL111      0.1103
     40 H         124.4335  151.5063  143.7692 H       1  UNL111      0.1069
     41 H         123.3112  152.8684  143.6435 H       1  UNL111      0.1069
     42 H         122.7078  151.2052  144.0063 H       1  UNL111      0.1069
@<TRIPOS>UNITY_ATOM_ATTR
3 1
charge 1
@<TRIPOS>BOND
     1     1     5    1
     2     2    14    1
     3     2    18    1
     4     3    10    1
     5     3    16    1
     6     4     5    1
     7     4     7    1
     8     4    10    1
     9     5     6    1
    10     5    11    1
    11     6     8    1
    12     7     9    1
    13     8     9    1
    14    11    12   ar
    15    11    13   ar
    16    12    14   ar
    17    13    15   ar
    18    14    17   ar
    19    15    17   ar
    20     1    19    1
    21     3    20    1
    22     3    21    1
    23     4    22    1
    24     6    23    1
    25     6    24    1
    26     7    25    1
    27     7    26    1
    28     8    27    1
    29     8    28    1
    30     9    29    1
    31     9    30    1
    32    10    31    1
    33    10    32    1
    34    12    33    1
    35    13    34    1
    36    15    35    1
    37    16    36    1
    38    16    37    1
    39    16    38    1
    40    17    39    1
    41    18    40    1
    42    18    41    1
    43    18    42    1
@<TRIPOS>MOLECULE
10105488
 39 40 0 0 0
SMALL
GASTEIGER

@<TRIPOS>ATOM
      1 O         118.0960  153.5045  148.1168 O.3     1  UNL111     -0.4393
      2 O         123.1337  153.0508  144.8024 O.3     1  UNL111     -0.5834
      3 N         117.8460  149.8990  145.9230 N.4     1  UNL111      0.4370
      4 C         118.7338  153.5501  146.8333 C.3     1  UNL111      0.0414
      5 C         118.1074  152.3800  146.0105 C.3     1  UNL111     -0.0169
      6 C         118.4276  154.9188  146.1848 C.3     1  UNL111     -0.0256
      7 C         116.6073  152.6342  145.7388 C.3     1  UNL111     -0.0463
      8 C         116.9351  155.1276  145.9399 C.3     1  UNL111     -0.0530
      9 C         116.3547  153.9975  145.1021 C.3     1  UNL111     -0.0576
     10 C         118.3102  151.0454  146.7514 C.3     1  UNL111     -0.0236
     11 C         120.2437  153.3687  147.0023 C.ar    1  UNL111     -0.0278
     12 C         121.0850  153.3036  145.8748 C.ar    1  UNL111     -0.0168
     13 C         120.8416  153.2433  148.2662 C.ar    1  UNL111     -0.0664
     14 C         122.4664  153.1119  145.9939 C.ar    1  UNL111      0.0355
     15 C         122.2205  153.0576  148.3917 C.ar    1  UNL111     -0.0678
     16 C         123.0318  152.9882  147.2588 C.ar    1  UNL111     -0.0311
     17 C         124.5559  153.0060  144.8650 C.3     1  UNL111      0.0293
     18 H         118.2294  154.3741  148.5415 H       1  UNL111      0.2418
     19 H         118.0790  149.0096  146.3839 H       1  UNL111      0.1375
     20 H         118.2953  149.8907  144.9985 H       1  UNL111      0.1375
     21 H         116.8274  149.9092  145.7886 H       1  UNL111      0.1375
     22 H         118.6057  152.3156  145.0335 H       1  UNL111      0.0676
     23 H         118.9532  155.0215  145.2272 H       1  UNL111      0.0490
     24 H         118.7875  155.7310  146.8297 H       1  UNL111      0.0490
     25 H         116.0372  152.5605  146.6736 H       1  UNL111      0.0385
     26 H         116.2081  151.8666  145.0663 H       1  UNL111      0.0385
     27 H         116.7788  156.0833  145.4266 H       1  UNL111      0.0344
     28 H         116.4026  155.1917  146.8963 H       1  UNL111      0.0344
     29 H         115.2766  154.1496  144.9770 H       1  UNL111      0.0329
     30 H         116.7979  154.0192  144.0988 H       1  UNL111      0.0329
     31 H         119.3642  150.8410  146.9564 H       1  UNL111      0.0759
     32 H         117.7469  150.9923  147.6881 H       1  UNL111      0.0759
     33 H         120.6788  153.4159  144.8708 H       1  UNL111      0.1146
     34 H         120.2500  153.2880  149.1787 H       1  UNL111      0.0922
     35 H         122.6676  152.9701  149.3803 H       1  UNL111      0.0912
     36 H         124.0980  152.8412  147.4004 H       1  UNL111      0.1103
     37 H         124.9359  153.0286  143.8392 H       1  UNL111      0.1069
     38 H         124.8980  152.0742  145.3270 H       1  UNL111      0.1069
     39 H         124.9575  153.8793  145.3898 H       1  UNL111      0.1069
@<TRIPOS>UNITY_ATOM_ATTR
3 1
charge 1
@<TRIPOS>BOND
     1     1     4    1
     2     2    14    1
     3     2    17    1
     4     3    10    1
     5     4     5    1
     6     4     6    1
     7     4    11    1
     8     5     7    1
     9     5    10    1
    10     6     8    1
    11     7     9    1
    12     8     9    1
    13    11    12   ar
    14    11    13   ar
    15    12    14   ar
    16    13    15   ar
    17    14    16   ar
    18    15    16   ar
    19     1    18    1
    20     3    19    1
    21     3    20    1
    22     3    21    1
    23     5    22    1
    24     6    23    1
    25     6    24    1
    26     7    25    1
    27     7    26    1
    28     8    27    1
    29     8    28    1
    30     9    29    1
    31     9    30    1
    32    10    31    1
    33    10    32    1
    34    12    33    1
    35    13    34    1
    36    15    35    1
    37    16    36    1
    38    17    37    1
    39    17    38    1
    40    17    39    1
@<TRIPOS>MOLECULE
9816106
 39 40 0 0 0
SMALL
GASTEIGER

@<TRIPOS>ATOM
      1 O         118.8131  153.9289  148.1664 O.3     1  UNL111     -0.4393
      2 O         123.4830  152.9750  144.3547 O.3     1  UNL111     -0.5645
      3 N         117.6723  150.4867  145.9565 N.4     1  UNL111      0.4310
      4 C         118.3721  152.8964  146.0520 C.3     1  UNL111     -0.0171
      5 C         119.2792  153.9181  146.8105 C.3     1  UNL111      0.0414
      6 C         116.9124  153.3993  145.9755 C.3     1  UNL111     -0.0462
      7 C         119.1168  155.3474  146.2439 C.3     1  UNL111     -0.0256
      8 C         116.8081  154.8141  145.4148 C.3     1  UNL111     -0.0576
      9 C         117.6585  155.7973  146.2053 C.3     1  UNL111     -0.0530
     10 C         118.4391  151.5156  146.7384 C.3     1  UNL111     -0.0281
     11 C         120.7471  153.4809  146.7733 C.ar    1  UNL111     -0.0280
     12 C         121.4605  153.4596  145.5581 C.ar    1  UNL111     -0.0178
     13 C         121.4136  153.0423  147.9342 C.ar    1  UNL111     -0.0665
     14 C         122.7790  153.0098  145.5203 C.ar    1  UNL111      0.0354
     15 C         122.7352  152.5909  147.8820 C.ar    1  UNL111     -0.0681
     16 C         117.8175  149.1040  146.4898 C.3     1  UNL111     -0.0417
     17 C         123.4167  152.5684  146.6700 C.ar    1  UNL111     -0.0321
     18 H         119.2111  154.7055  148.6058 H       1  UNL111      0.2418
     19 H         123.0590  153.5544  143.7006 H       1  UNL111      0.3342
     20 H         117.9803  150.4975  144.9756 H       1  UNL111      0.1333
     21 H         116.6731  150.7274  145.9547 H       1  UNL111      0.1333
     22 H         118.7362  152.7908  145.0206 H       1  UNL111      0.0677
     23 H         116.4527  153.3711  146.9715 H       1  UNL111      0.0385
     24 H         116.3168  152.7389  145.3355 H       1  UNL111      0.0385
     25 H         119.5219  155.4159  145.2273 H       1  UNL111      0.0490
     26 H         119.6818  156.0619  146.8566 H       1  UNL111      0.0490
     27 H         115.7613  155.1384  145.4309 H       1  UNL111      0.0329
     28 H         117.1255  154.8148  144.3647 H       1  UNL111      0.0329
     29 H         117.5940  156.7906  145.7465 H       1  UNL111      0.0344
     30 H         117.2661  155.8934  147.2247 H       1  UNL111      0.0344
     31 H         119.4652  151.1415  146.7919 H       1  UNL111      0.0759
     32 H         118.0041  151.5305  147.7433 H       1  UNL111      0.0759
     33 H         120.9890  153.7846  144.6349 H       1  UNL111      0.1143
     34 H         120.9154  153.0360  148.9023 H       1  UNL111      0.0922
     35 H         123.2363  152.2599  148.7892 H       1  UNL111      0.0912
     36 H         118.8719  148.8231  146.4364 H       1  UNL111      0.0661
     37 H         117.2135  148.4470  145.8601 H       1  UNL111      0.0661
     38 H         117.4518  149.0925  147.5192 H       1  UNL111      0.0661
     39 H         124.4460  152.2216  146.6246 H       1  UNL111      0.1100
@<TRIPOS>UNITY_ATOM_ATTR
3 1
charge 1
@<TRIPOS>BOND
     1     1     5    1
     2     2    14    1
     3     3    10    1
     4     3    16    1
     5     4     5    1
     6     4     6    1
     7     4    10    1
     8     5     7    1
     9     5    11    1
    10     6     8    1
    11     7     9    1
    12     8     9    1
    13    11    12   ar
    14    11    13   ar
    15    12    14   ar
    16    13    15   ar
    17    14    17   ar
    18    15    17   ar
    19     1    18    1
    20     2    19    1
    21     3    20    1
    22     3    21    1
    23     4    22    1
    24     6    23    1
    25     6    24    1
    26     7    25    1
    27     7    26    1
    28     8    27    1
    29     8    28    1
    30     9    29    1
    31     9    30    1
    32    10    31    1
    33    10    32    1
    34    12    33    1
    35    13    34    1
    36    15    35    1
    37    16    36    1
    38    16    37    1
    39    16    38    1
    40    17    39    1
@<TRIPOS>MOLECULE
72941943
 42 43 0 0 0
SMALL
GASTEIGER

@<TRIPOS>ATOM
      1 O         116.4733  154.3256  145.2090 O.3     1  UNL111     -0.5833
      2 N         122.3704  155.2538  146.4859 N.4     1  UNL111      0.4245
      3 C         121.4561  152.9668  145.8318 C.3     1  UNL111     -0.0252
      4 C         122.7075  152.3503  145.1645 C.3     1  UNL111     -0.0474
      5 C         123.2604  151.1616  145.9463 C.3     1  UNL111     -0.0544
      6 C         120.4977  151.8976  146.3372 C.2     1  UNL111     -0.0654
      7 C         121.8244  153.9231  146.9925 C.3     1  UNL111     -0.0348
      8 C         122.2083  150.0661  146.1038 C.3     1  UNL111     -0.0447
      9 C         120.8465  150.6012  146.4355 C.2     1  UNL111     -0.0994
     10 C         119.1198  152.3144  146.6849 C.ar    1  UNL111     -0.0378
     11 C         118.3617  153.1049  145.8103 C.ar    1  UNL111     -0.0192
     12 C         121.2815  156.1769  145.9985 C.3     1  UNL111     -0.0462
     13 C         123.2157  155.9308  147.5318 C.3     1  UNL111     -0.0462
     14 C         118.5617  151.9657  147.9220 C.ar    1  UNL111     -0.0688
     15 C         117.0798  153.5474  146.1562 C.ar    1  UNL111      0.0354
     16 C         117.2824  152.4021  148.2720 C.ar    1  UNL111     -0.0679
     17 C         116.5439  153.1965  147.3932 C.ar    1  UNL111     -0.0309
     18 C         115.0901  154.6052  145.4033 C.3     1  UNL111      0.0294
     19 H         122.9901  155.0677  145.6879 H       1  UNL111      0.1292
     20 H         120.9582  153.5384  145.0418 H       1  UNL111      0.0654
     21 H         123.4943  153.1002  145.0313 H       1  UNL111      0.0387
     22 H         122.4372  152.0082  144.1560 H       1  UNL111      0.0387
     23 H         123.6007  151.4915  146.9352 H       1  UNL111      0.0346
     24 H         124.1392  150.7535  145.4339 H       1  UNL111      0.0346
     25 H         120.9714  154.1691  147.6348 H       1  UNL111      0.0760
     26 H         122.6007  153.4759  147.6234 H       1  UNL111      0.0760
     27 H         122.5290  149.3722  146.8891 H       1  UNL111      0.0425
     28 H         122.1341  149.4878  145.1752 H       1  UNL111      0.0425
     29 H         120.1174  149.8531  146.7475 H       1  UNL111      0.0778
     30 H         118.7396  153.3632  144.8242 H       1  UNL111      0.1147
     31 H         120.6054  156.3907  146.8306 H       1  UNL111      0.0661
     32 H         120.7515  155.6925  145.1766 H       1  UNL111      0.0661
     33 H         121.7547  157.0936  145.6363 H       1  UNL111      0.0661
     34 H         122.5928  156.1316  148.4075 H       1  UNL111      0.0661
     35 H         123.6063  156.8586  147.1055 H       1  UNL111      0.0661
     36 H         124.0442  155.2629  147.7822 H       1  UNL111      0.0661
     37 H         119.1153  151.3521  148.6302 H       1  UNL111      0.0924
     38 H         116.8573  152.1203  149.2332 H       1  UNL111      0.0914
     39 H         115.5550  153.5200  147.7032 H       1  UNL111      0.1103
     40 H         114.7301  155.1384  144.5182 H       1  UNL111      0.1069
     41 H         114.9422  155.2584  146.2693 H       1  UNL111      0.1069
     42 H         114.5070  153.6830  145.4983 H       1  UNL111      0.1069
@<TRIPOS>UNITY_ATOM_ATTR
2 1
charge 1
@<TRIPOS>BOND
     1     1    15    1
     2     1    18    1
     3     2     7    1
     4     2    12    1
     5     2    13    1
     6     3     4    1
     7     3     6    1
     8     3     7    1
     9     4     5    1
    10     5     8    1
    11     6     9    2
    12     6    10    1
    13     8     9    1
    14    10    11   ar
    15    10    14   ar
    16    11    15   ar
    17    14    16   ar
    18    15    17   ar
    19    16    17   ar
    20     2    19    1
    21     3    20    1
    22     4    21    1
    23     4    22    1
    24     5    23    1
    25     5    24    1
    26     7    25    1
    27     7    26    1
    28     8    27    1
    29     8    28    1
    30     9    29    1
    31    11    30    1
    32    12    31    1
    33    12    32    1
    34    12    33    1
    35    13    34    1
    36    13    35    1
    37    13    36    1
    38    14    37    1
    39    16    38    1
    40    17    39    1
    41    18    40    1
    42    18    41    1
    43    18    42    1
@<TRIPOS>MOLECULE
3056578
 39 40 0 0 0
SMALL
GASTEIGER

@<TRIPOS>ATOM
      1 O         120.9273  154.2034  145.0561 O.3     1  UNL111     -0.4393
      2 O         116.2139  153.0718  145.1353 O.3     1  UNL111     -0.5834
      3 N         122.1905  150.1919  145.3753 N.4     1  UNL111      0.4370
      4 C         120.8969  153.6930  146.3955 C.3     1  UNL111      0.0414
      5 C         121.8358  152.4459  146.3980 C.3     1  UNL111     -0.0169
      6 C         121.4263  154.8038  147.3316 C.3     1  UNL111     -0.0256
      7 C         123.3064  152.8551  146.1524 C.3     1  UNL111     -0.0463
      8 C         122.8757  155.1779  147.0326 C.3     1  UNL111     -0.0530
      9 C         123.7764  153.9537  147.1005 C.3     1  UNL111     -0.0576
     10 C         121.3686  151.4321  145.3355 C.3     1  UNL111     -0.0236
     11 C         119.4645  153.3040  146.7705 C.ar    1  UNL111     -0.0278
     12 C         118.4192  153.3452  145.8287 C.ar    1  UNL111     -0.0168
     13 C         119.1528  152.8599  148.0669 C.ar    1  UNL111     -0.0664
     14 C         117.1103  152.9772  146.1631 C.ar    1  UNL111      0.0355
     15 C         117.8502  152.4861  148.4046 C.ar    1  UNL111     -0.0678
     16 C         116.8301  152.5439  147.4552 C.ar    1  UNL111     -0.0311
     17 C         114.8369  152.9341  145.4710 C.3     1  UNL111      0.0293
     18 H         120.4884  155.0766  145.0669 H       1  UNL111      0.2418
     19 H         121.8010  149.4885  144.7338 H       1  UNL111      0.1375
     20 H         122.2092  149.7741  146.3139 H       1  UNL111      0.1375
     21 H         123.1584  150.3644  145.0763 H       1  UNL111      0.1375
     22 H         121.7906  151.9640  147.3845 H       1  UNL111      0.0676
     23 H         121.3637  154.4959  148.3821 H       1  UNL111      0.0490
     24 H         120.8097  155.7064  147.2306 H       1  UNL111      0.0490
     25 H         123.4339  153.1942  145.1165 H       1  UNL111      0.0385
     26 H         123.9667  151.9903  146.2834 H       1  UNL111      0.0385
     27 H         123.2173  155.9264  147.7568 H       1  UNL111      0.0344
     28 H         122.9493  155.6403  146.0411 H       1  UNL111      0.0344
     29 H         124.8042  154.2397  146.8495 H       1  UNL111      0.0329
     30 H         123.7950  153.5671  148.1269 H       1  UNL111      0.0329
     31 H         120.3419  151.0989  145.5071 H       1  UNL111      0.0759
     32 H         121.4539  151.8191  144.3155 H       1  UNL111      0.0759
     33 H         118.6009  153.6718  144.8059 H       1  UNL111      0.1146
     34 H         119.9142  152.8060  148.8427 H       1  UNL111      0.0922
     35 H         117.6241  152.1555  149.4167 H       1  UNL111      0.0912
     36 H         115.8306  152.2449  147.7556 H       1  UNL111      0.1103
     37 H         114.2513  153.1413  144.5701 H       1  UNL111      0.1069
     38 H         114.5397  153.6589  146.2364 H       1  UNL111      0.1069
     39 H         114.6126  151.9103  145.7871 H       1  UNL111      0.1069
@<TRIPOS>UNITY_ATOM_ATTR
3 1
charge 1
@<TRIPOS>BOND
     1     1     4    1
     2     2    14    1
     3     2    17    1
     4     3    10    1
     5     4     5    1
     6     4     6    1
     7     4    11    1
     8     5     7    1
     9     5    10    1
    10     6     8    1
    11     7     9    1
    12     8     9    1
    13    11    12   ar
    14    11    13   ar
    15    12    14   ar
    16    13    15   ar
    17    14    16   ar
    18    15    16   ar
    19     1    18    1
    20     3    19    1
    21     3    20    1
    22     3    21    1
    23     5    22    1
    24     6    23    1
    25     6    24    1
    26     7    25    1
    27     7    26    1
    28     8    27    1
    29     8    28    1
    30     9    29    1
    31     9    30    1
    32    10    31    1
    33    10    32    1
    34    12    33    1
    35    13    34    1
    36    15    35    1
    37    16    36    1
    38    17    37    1
    39    17    38    1
    40    17    39    1
@<TRIPOS>MOLECULE
25271934
 45 46 0 0 0
SMALL
GASTEIGER

@<TRIPOS>ATOM
      1 O         118.9321  154.7142  144.5944 O.3     1  UNL1111    -0.4393
      2 O         116.9354  151.0100  147.3701 O.co2   1  UNL1111    -0.7596
      3 O         123.4019  152.0589  147.8769 O.2     1  UNL1111    -0.5834
      4 N         117.8480  150.8756  146.3583 N.3     1  UNL1111     0.3992
      5 C         118.3458  153.4167  146.5527 C.3     1  UNL1111    -0.0199
      6 C         119.3936  154.3773  145.9131 C.3     1  UNL1111     0.0413
      7 C         117.0237  154.1602  146.8551 C.3     1  UNL1111    -0.0464
      8 C         119.5463  155.6890  146.7227 C.3     1  UNL1111    -0.0256
      9 C         118.0599  152.2046  145.6316 C.3     1  UNL1111    -0.0512
     10 C         117.2472  155.4010  147.7123 C.3     1  UNL1111    -0.0576
     11 C         118.2177  156.3682  147.0509 C.3     1  UNL1111    -0.0530
     12 C         120.7750  153.7096  145.7924 C.3     1  UNL1111    -0.0278
     13 C         119.1485  150.3641  146.9221 C.3     1  UNL1111    -0.0648
     14 C         117.3290  149.8627  145.3701 C.3     1  UNL1111    -0.0648
     15 C         121.4386  153.2127  146.9355 C.3     1  UNL1111    -0.0168
     16 C         121.4166  153.5726  144.5499 C.3     1  UNL1111    -0.0664
     17 C         122.6842  152.5855  146.8387 C.3     1  UNL1111     0.0355
     18 C         122.6599  152.9482  144.4476 C.3     1  UNL1111    -0.0678
     19 C         123.2863  152.4534  145.5885 C.3     1  UNL1111    -0.0311
     20 C         122.8760  152.2410  149.1857 C.3     1  UNL1111     0.0293
     21 H         118.1780  155.3203  144.6743 H       1  UNL1111     0.2418
     22 H         118.7268  153.0711  147.5196 H       1  UNL1111     0.0676
     23 H         116.3284  153.4960  147.3798 H       1  UNL1111     0.0385
     24 H         116.5263  154.4524  145.9218 H       1  UNL1111     0.0385
     25 H         120.1670  156.4016  146.1637 H       1  UNL1111     0.0490
     26 H         120.0635  155.4985  147.6716 H       1  UNL1111     0.0490
     27 H         117.1446  152.3697  145.0503 H       1  UNL1111     0.0727
     28 H         118.8709  152.0032  144.9242 H       1  UNL1111     0.0727
     29 H         117.6343  155.1036  148.6946 H       1  UNL1111     0.0329
     30 H         116.2895  155.9045  147.8864 H       1  UNL1111     0.0329
     31 H         117.7676  156.7818  146.1412 H       1  UNL1111     0.0344
     32 H         118.3996  157.2181  147.7191 H       1  UNL1111     0.0344
     33 H         119.4762  151.0486  147.7055 H       1  UNL1111     0.0628
     34 H         119.8752  150.3002  146.1087 H       1  UNL1111     0.0628
     35 H         118.9533  149.3784  147.3543 H       1  UNL1111     0.0628
     36 H         116.3719  150.2305  144.9902 H       1  UNL1111     0.0628
     37 H         117.1864  148.9195  145.9048 H       1  UNL1111     0.0628
     38 H         118.0647  149.7600  144.5685 H       1  UNL1111     0.0628
     39 H         120.9606  153.3227  147.9038 H       1  UNL1111     0.1146
     40 H         120.9509  153.9521  143.6421 H       1  UNL1111     0.0922
     41 H         123.1407  152.8507  143.4779 H       1  UNL1111     0.0912
     42 H         124.2557  151.9684  145.5046 H       1  UNL1111     0.1103
     43 H         123.5846  151.8021  149.8946 H       1  UNL1111     0.1069
     44 H         121.9213  151.7176  149.3019 H       1  UNL1111     0.1069
     45 H         122.7774  153.3043  149.4285 H       1  UNL1111     0.1069
@<TRIPOS>UNITY_ATOM_ATTR
2 1
charge -1
4 1
charge 1
@<TRIPOS>BOND
     1     1     6    1
     2     2     4    1
     3     3    17    1
     4     3    20    1
     5     4     9    1
     6     4    13    1
     7     4    14    1
     8     5     6    1
     9     5     7    1
    10     5     9    1
    11     6     8    1
    12     6    12    1
    13     7    10    1
    14     8    11    1
    15    10    11    1
    16    12    15   ar
    17    12    16   ar
    18    15    17   ar
    19    16    18   ar
    20    17    19   ar
    21    18    19   ar
    22     1    21    1
    23     5    22    1
    24     7    23    1
    25     7    24    1
    26     8    25    1
    27     8    26    1
    28     9    27    1
    29     9    28    1
    30    10    29    1
    31    10    30    1
    32    11    31    1
    33    11    32    1
    34    13    33    1
    35    13    34    1
    36    13    35    1
    37    14    36    1
    38    14    37    1
    39    14    38    1
    40    15    39    1
    41    16    40    1
    42    18    41    1
    43    19    42    1
    44    20    43    1
    45    20    44    1
    46    20    45    1
@<TRIPOS>MOLECULE
85838
 29 29 0 0 0
SMALL
GASTEIGER

@<TRIPOS>ATOM
      1 O         118.9319  150.8982  146.5294 O.2     1  UNL111     -0.4199
      2 N         122.2894  153.4064  146.4936 N.4     1  UNL111      0.4255
      3 C         119.7753  153.1087  146.1255 C.3     1  UNL111      0.0226
      4 C         119.3955  154.3635  146.9180 C.3     1  UNL111     -0.0366
      5 C         118.0068  154.8755  146.5323 C.3     1  UNL111     -0.0542
      6 C         116.9427  153.8014  146.7425 C.3     1  UNL111     -0.0434
      7 C         121.0930  152.4697  146.5861 C.3     1  UNL111     -0.0230
      8 C         117.2631  152.5306  145.9693 C.3     1  UNL111      0.0149
      9 C         118.6707  152.0720  146.2739 C.2     1  UNL111      0.0841
     10 C         122.6099  153.8444  145.0900 C.3     1  UNL111     -0.0460
     11 C         123.5009  152.7784  147.1428 C.3     1  UNL111     -0.0460
     12 H         122.0846  154.2492  147.0452 H       1  UNL111      0.1296
     13 H         119.8313  153.3457  145.0564 H       1  UNL111      0.0841
     14 H         120.1225  155.1633  146.7395 H       1  UNL111      0.0411
     15 H         119.4111  154.1472  147.9939 H       1  UNL111      0.0411
     16 H         118.0093  155.1941  145.4827 H       1  UNL111      0.0336
     17 H         117.7613  155.7571  147.1352 H       1  UNL111      0.0336
     18 H         115.9641  154.1845  146.4324 H       1  UNL111      0.0370
     19 H         116.8731  153.5703  147.8128 H       1  UNL111      0.0370
     20 H         121.0204  152.1658  147.6379 H       1  UNL111      0.0786
     21 H         121.3416  151.5848  145.9875 H       1  UNL111      0.0786
     22 H         117.1854  152.6971  144.8895 H       1  UNL111      0.0654
     23 H         116.5590  151.7383  146.2441 H       1  UNL111      0.0654
     24 H         122.7729  152.9560  144.4746 H       1  UNL111      0.0662
     25 H         123.5080  154.4672  145.1240 H       1  UNL111      0.0662
     26 H         121.7748  154.4392  144.7144 H       1  UNL111      0.0662
     27 H         123.7653  151.8751  146.5864 H       1  UNL111      0.0662
     28 H         123.2471  152.5434  148.1797 H       1  UNL111      0.0662
     29 H         124.3147  153.5080  147.1177 H       1  UNL111      0.0662
@<TRIPOS>UNITY_ATOM_ATTR
2 1
charge 1
@<TRIPOS>BOND
     1     1     9    2
     2     2     7    1
     3     2    10    1
     4     2    11    1
     5     3     4    1
     6     3     7    1
     7     3     9    1
     8     4     5    1
     9     5     6    1
    10     6     8    1
    11     8     9    1
    12     2    12    1
    13     3    13    1
    14     4    14    1
    15     4    15    1
    16     5    16    1
    17     5    17    1
    18     6    18    1
    19     6    19    1
    20     7    20    1
    21     7    21    1
    22     8    22    1
    23     8    23    1
    24    10    24    1
    25    10    25    1
    26    10    26    1
    27    11    27    1
    28    11    28    1
    29    11    29    1
@<TRIPOS>MOLECULE
22016064
 45 46 0 0 0
SMALL
GASTEIGER

@<TRIPOS>ATOM
      1 O         118.9308  154.7149  144.5956 O.3     1  UNL1111    -0.4393
      2 O         116.9374  151.0069  147.3687 O.co2   1  UNL1111    -0.7596
      3 O         123.4028  152.0605  147.8759 O.2     1  UNL1111    -0.5834
      4 N         117.8501  150.8740  146.3567 N.3     1  UNL1111     0.3992
      5 C         118.3456  153.4154  146.5529 C.3     1  UNL1111    -0.0199
      6 C         119.3927  154.3773  145.9140 C.3     1  UNL1111     0.0413
      7 C         117.0229  154.1575  146.8559 C.3     1  UNL1111    -0.0464
      8 C         119.5443  155.6886  146.7247 C.3     1  UNL1111    -0.0256
      9 C         118.0607  152.2037  145.6310 C.3     1  UNL1111    -0.0512
     10 C         117.2454  155.3978  147.7141 C.3     1  UNL1111    -0.0576
     11 C         118.2150  156.3664  147.0534 C.3     1  UNL1111    -0.0530
     12 C         120.7746  153.7109  145.7928 C.3     1  UNL1111    -0.0278
     13 C         117.3319  149.8613  145.3678 C.3     1  UNL1111    -0.0648
     14 C         119.1510  150.3632  146.9200 C.3     1  UNL1111    -0.0648
     15 C         121.4386  153.2135  146.9355 C.3     1  UNL1111    -0.0168
     16 C         121.4163  153.5756  144.5502 C.3     1  UNL1111    -0.0664
     17 C         122.6846  152.5875  146.8381 C.3     1  UNL1111     0.0355
     18 C         122.6601  152.9523  144.4474 C.3     1  UNL1111    -0.0678
     19 C         123.2869  152.4570  145.5879 C.3     1  UNL1111    -0.0311
     20 C         122.8763  152.2403  149.1847 C.3     1  UNL1111     0.0293
     21 H         118.1762  155.3203  144.6760 H       1  UNL1111     0.2418
     22 H         118.7270  153.0694  147.5196 H       1  UNL1111     0.0676
     23 H         116.3282  153.4924  147.3801 H       1  UNL1111     0.0385
     24 H         116.5252  154.4500  145.9229 H       1  UNL1111     0.0385
     25 H         120.1643  156.4021  146.1662 H       1  UNL1111     0.0490
     26 H         120.0616  155.4978  147.6734 H       1  UNL1111     0.0490
     27 H         117.1452  152.3685  145.0498 H       1  UNL1111     0.0727
     28 H         118.8719  152.0035  144.9234 H       1  UNL1111     0.0727
     29 H         117.6328  155.1001  148.6961 H       1  UNL1111     0.0329
     30 H         116.2873  155.9004  147.8885 H       1  UNL1111     0.0329
     31 H         117.7646  156.7803  146.1440 H       1  UNL1111     0.0344
     32 H         118.3963  157.2159  147.7222 H       1  UNL1111     0.0344
     33 H         116.3745  150.2285  144.9882 H       1  UNL1111     0.0628
     34 H         117.1902  148.9176  145.9018 H       1  UNL1111     0.0628
     35 H         118.0677  149.7599  144.5661 H       1  UNL1111     0.0628
     36 H         119.4782  151.0474  147.7040 H       1  UNL1111     0.0628
     37 H         119.8778  150.3006  146.1066 H       1  UNL1111     0.0628
     38 H         118.9568  149.3771  147.3515 H       1  UNL1111     0.0628
     39 H         120.9605  153.3224  147.9039 H       1  UNL1111     0.1146
     40 H         120.9503  153.9556  143.6427 H       1  UNL1111     0.0922
     41 H         123.1411  152.8560  143.4776 H       1  UNL1111     0.0912
     42 H         124.2567  151.9728  145.5035 H       1  UNL1111     0.1103
     43 H         123.5851  151.8011  149.8933 H       1  UNL1111     0.1069
     44 H         121.9220  151.7159  149.3000 H       1  UNL1111     0.1069
     45 H         122.7767  153.3032  149.4290 H       1  UNL1111     0.1069
@<TRIPOS>UNITY_ATOM_ATTR
2 1
charge -1
4 1
charge 1
@<TRIPOS>BOND
     1     1     6    1
     2     2     4    1
     3     3    17    1
     4     3    20    1
     5     4     9    1
     6     4    13    1
     7     4    14    1
     8     5     6    1
     9     5     7    1
    10     5     9    1
    11     6     8    1
    12     6    12    1
    13     7    10    1
    14     8    11    1
    15    10    11    1
    16    12    15   ar
    17    12    16   ar
    18    15    17   ar
    19    16    18   ar
    20    17    19   ar
    21    18    19   ar
    22     1    21    1
    23     5    22    1
    24     7    23    1
    25     7    24    1
    26     8    25    1
    27     8    26    1
    28     9    27    1
    29     9    28    1
    30    10    29    1
    31    10    30    1
    32    11    31    1
    33    11    32    1
    34    13    33    1
    35    13    34    1
    36    13    35    1
    37    14    36    1
    38    14    37    1
    39    14    38    1
    40    15    39    1
    41    16    40    1
    42    18    41    1
    43    19    42    1
    44    20    43    1
    45    20    44    1
    46    20    45    1
@<TRIPOS>MOLECULE
146157275
 45 46 0 0 0
SMALL
GASTEIGER

@<TRIPOS>ATOM
      1 O         118.9146  154.7438  144.6340 O.3     1  UNL1111    -0.4393
      2 O         116.9806  150.9228  147.2952 O.co2   1  UNL1111    -0.7596
      3 O         123.4063  152.0814  147.8796 O.2     1  UNL1111    -0.5834
      4 N         117.9060  150.8361  146.2897 N.3     1  UNL1111     0.3992
      5 C         118.3410  153.3826  146.5522 C.3     1  UNL1111    -0.0199
      6 C         119.3727  154.3825  145.9474 C.3     1  UNL1111     0.0413
      7 C         116.9996  154.0883  146.8600 C.3     1  UNL1111    -0.0464
      8 C         119.4892  155.6750  146.7931 C.3     1  UNL1111    -0.0256
      9 C         118.0918  152.1878  145.5984 C.3     1  UNL1111    -0.0512
     10 C         117.1872  155.3109  147.7514 C.3     1  UNL1111    -0.0576
     11 C         118.1429  156.3162  147.1260 C.3     1  UNL1111    -0.0530
     12 C         120.7696  153.7493  145.8212 C.3     1  UNL1111    -0.0278
     13 C         119.2131  150.3424  146.8540 C.3     1  UNL1111    -0.0648
     14 C         117.4219  149.8359  145.2714 C.3     1  UNL1111    -0.0648
     15 C         121.4314  153.2291  146.9550 C.3     1  UNL1111    -0.0168
     16 C         121.4276  153.6675  144.5825 C.3     1  UNL1111    -0.0664
     17 C         122.6899  152.6296  146.8517 C.3     1  UNL1111     0.0355
     18 C         122.6851  153.0731  144.4741 C.3     1  UNL1111    -0.0678
     19 C         123.3089  152.5529  145.6051 C.3     1  UNL1111    -0.0311
     20 C         122.8479  152.1809  149.1838 C.3     1  UNL1111     0.0293
     21 H         118.1471  155.3315  144.7230 H       1  UNL1111     0.2418
     22 H         118.7205  153.0215  147.5141 H       1  UNL1111     0.0676
     23 H         116.3144  153.3953  147.3602 H       1  UNL1111     0.0385
     24 H         116.5048  154.3936  145.9296 H       1  UNL1111     0.0385
     25 H         120.0992  156.4156  146.2593 H       1  UNL1111     0.0490
     26 H         120.0018  155.4700  147.7414 H       1  UNL1111     0.0490
     27 H         117.1774  152.3457  145.0136 H       1  UNL1111     0.0727
     28 H         118.9131  152.0238  144.8933 H       1  UNL1111     0.0727
     29 H         117.5708  154.9965  148.7297 H       1  UNL1111     0.0329
     30 H         116.2169  155.7888  147.9283 H       1  UNL1111     0.0329
     31 H         117.6926  156.7445  146.2232 H       1  UNL1111     0.0344
     32 H         118.2999  157.1515  147.8185 H       1  UNL1111     0.0344
     33 H         119.5149  151.0133  147.6592 H       1  UNL1111     0.0628
     34 H         119.9496  150.3188  146.0474 H       1  UNL1111     0.0628
     35 H         119.0387  149.3409  147.2576 H       1  UNL1111     0.0628
     36 H         116.4599  150.1896  144.8905 H       1  UNL1111     0.0628
     37 H         117.2973  148.8764  145.7810 H       1  UNL1111     0.0628
     38 H         118.1680  149.7712  144.4753 H       1  UNL1111     0.0628
     39 H         120.9416  153.2991  147.9212 H       1  UNL1111     0.1146
     40 H         120.9639  154.0672  143.6824 H       1  UNL1111     0.0922
     41 H         123.1786  153.0184  143.5074 H       1  UNL1111     0.0912
     42 H         124.2889  152.0907  145.5163 H       1  UNL1111     0.1103
     43 H         123.5519  151.7219  149.8846 H       1  UNL1111     0.1069
     44 H         121.9042  151.6297  149.2509 H       1  UNL1111     0.1069
     45 H         122.7179  153.2272  149.4797 H       1  UNL1111     0.1069
@<TRIPOS>UNITY_ATOM_ATTR
2 1
charge -1
4 1
charge 1
@<TRIPOS>BOND
     1     1     6    1
     2     2     4    1
     3     3    17    1
     4     3    20    1
     5     4     9    1
     6     4    13    1
     7     4    14    1
     8     5     6    1
     9     5     7    1
    10     5     9    1
    11     6     8    1
    12     6    12    1
    13     7    10    1
    14     8    11    1
    15    10    11    1
    16    12    15   ar
    17    12    16   ar
    18    15    17   ar
    19    16    18   ar
    20    17    19   ar
    21    18    19   ar
    22     1    21    1
    23     5    22    1
    24     7    23    1
    25     7    24    1
    26     8    25    1
    27     8    26    1
    28     9    27    1
    29     9    28    1
    30    10    29    1
    31    10    30    1
    32    11    31    1
    33    11    32    1
    34    13    33    1
    35    13    34    1
    36    13    35    1
    37    14    36    1
    38    14    37    1
    39    14    38    1
    40    15    39    1
    41    16    40    1
    42    18    41    1
    43    19    42    1
    44    20    43    1
    45    20    44    1
    46    20    45    1
@<TRIPOS>MOLECULE
40424862
 36 37 0 0 0
SMALL
GASTEIGER

@<TRIPOS>ATOM
      1 O         118.6191  153.4256  144.6296 O.3     1  UNL111     -0.4393
      2 O         123.3697  153.3339  148.4594 O.3     1  UNL111     -0.5645
      3 N         117.9852  149.9676  146.9751 N.4     1  UNL111      0.4370
      4 C         119.0797  153.5458  145.9818 C.3     1  UNL111      0.0413
      5 C         118.3304  152.4374  146.7883 C.3     1  UNL111     -0.0169
      6 C         118.7090  154.9600  146.4843 C.3     1  UNL111     -0.0256
      7 C         116.8127  152.7242  146.8500 C.3     1  UNL111     -0.0463
      8 C         117.2004  155.1926  146.5114 C.3     1  UNL111     -0.0530
      9 C         116.5022  154.1317  147.3494 C.3     1  UNL111     -0.0576
     10 C         118.5969  151.0542  146.1626 C.3     1  UNL111     -0.0236
     11 C         120.5951  153.3277  146.0324 C.ar    1  UNL111     -0.0280
     12 C         121.3015  153.4663  147.2439 C.ar    1  UNL111     -0.0178
     13 C         121.3203  152.9367  144.8899 C.ar    1  UNL111     -0.0665
     14 C         122.6709  153.2131  147.2965 C.ar    1  UNL111      0.0354
     15 C         122.6930  152.6832  144.9570 C.ar    1  UNL111     -0.0681
     16 C         123.3680  152.8150  146.1658 C.ar    1  UNL111     -0.0321
     17 H         118.9005  154.2307  144.1523 H       1  UNL111      0.2418
     18 H         122.8695  153.8829  149.0852 H       1  UNL111      0.3342
     19 H         118.2558  149.0489  146.5992 H       1  UNL111      0.1375
     20 H         116.9584  150.0054  146.9583 H       1  UNL111      0.1375
     21 H         118.2962  149.9990  147.9541 H       1  UNL111      0.1375
     22 H         118.7040  152.4306  147.8217 H       1  UNL111      0.0676
     23 H         119.1636  155.7209  145.8367 H       1  UNL111      0.0490
     24 H         119.0988  155.1332  147.4944 H       1  UNL111      0.0490
     25 H         116.3196  152.0109  147.5200 H       1  UNL111      0.0385
     26 H         116.3636  152.5863  145.8582 H       1  UNL111      0.0385
     27 H         116.7991  155.1847  145.4910 H       1  UNL111      0.0344
     28 H         116.9906  156.1852  146.9261 H       1  UNL111      0.0344
     29 H         116.8156  154.2250  148.3965 H       1  UNL111      0.0329
     30 H         115.4193  154.2986  147.3252 H       1  UNL111      0.0329
     31 H         118.1739  150.9570  145.1580 H       1  UNL111      0.0759
     32 H         119.6627  150.8156  146.1263 H       1  UNL111      0.0759
     33 H         120.7866  153.7631  148.1534 H       1  UNL111      0.1143
     34 H         120.8310  152.8146  143.9249 H       1  UNL111      0.0922
     35 H         123.2389  152.3863  144.0639 H       1  UNL111      0.0912
     36 H         124.4364  152.6222  146.2225 H       1  UNL111      0.1100
@<TRIPOS>UNITY_ATOM_ATTR
3 1
charge 1
@<TRIPOS>BOND
     1     1     4    1
     2     2    14    1
     3     3    10    1
     4     4     5    1
     5     4     6    1
     6     4    11    1
     7     5     7    1
     8     5    10    1
     9     6     8    1
    10     7     9    1
    11     8     9    1
    12    11    12   ar
    13    11    13   ar
    14    12    14   ar
    15    13    15   ar
    16    14    16   ar
    17    15    16   ar
    18     1    17    1
    19     2    18    1
    20     3    19    1
    21     3    20    1
    22     3    21    1
    23     5    22    1
    24     6    23    1
    25     6    24    1
    26     7    25    1
    27     7    26    1
    28     8    27    1
    29     8    28    1
    30     9    29    1
    31     9    30    1
    32    10    31    1
    33    10    32    1
    34    12    33    1
    35    13    34    1
    36    15    35    1
    37    16    36    1
@<TRIPOS>MOLECULE
9813907
 45 46 0 0 0
SMALL
GASTEIGER

@<TRIPOS>ATOM
      1 O         119.2070  154.9081  144.7980 O.3     1  UNL111     -0.4393
      2 O         123.4591  152.2535  145.2220 O.3     1  UNL111     -0.5834
      3 N         117.7616  150.6129  146.8053 N.4     1  UNL111      0.4247
      4 C         118.3586  152.8926  145.8038 C.3     1  UNL111     -0.0172
      5 C         119.1100  154.2437  146.0669 C.3     1  UNL111      0.0415
      6 C         116.9297  153.1655  145.2805 C.3     1  UNL111     -0.0462
      7 C         118.2677  155.1665  146.9795 C.3     1  UNL111     -0.0256
      8 C         116.1220  154.0721  146.2024 C.3     1  UNL111     -0.0576
      9 C         116.8459  155.3872  146.4594 C.3     1  UNL111     -0.0530
     10 C         118.3883  151.9791  147.0475 C.3     1  UNL111     -0.0326
     11 C         120.5455  154.0099  146.5427 C.ar    1  UNL111     -0.0278
     12 C         121.4336  153.2828  145.7226 C.ar    1  UNL111     -0.0168
     13 C         121.0350  154.4750  147.7713 C.ar    1  UNL111     -0.0664
     14 C         117.6210  149.8508  148.0989 C.3     1  UNL111     -0.0463
     15 C         118.4974  149.7877  145.7806 C.3     1  UNL111     -0.0463
     16 C         122.7447  152.9977  146.1181 C.ar    1  UNL111      0.0355
     17 C         122.3474  154.2023  148.1680 C.ar    1  UNL111     -0.0678
     18 C         123.1983  153.4594  147.3487 C.ar    1  UNL111     -0.0311
     19 C         124.8427  152.0656  145.5020 C.3     1  UNL111      0.0293
     20 H         119.9179  155.5737  144.8579 H       1  UNL111      0.2418
     21 H         116.8060  150.7515  146.4550 H       1  UNL111      0.1292
     22 H         118.8765  152.3786  144.9848 H       1  UNL111      0.0678
     23 H         116.3832  152.2325  145.1117 H       1  UNL111      0.0385
     24 H         116.9975  153.6422  144.2937 H       1  UNL111      0.0385
     25 H         118.7452  156.1519  147.0600 H       1  UNL111      0.0490
     26 H         118.2046  154.7548  147.9942 H       1  UNL111      0.0490
     27 H         115.9252  153.5640  147.1534 H       1  UNL111      0.0329
     28 H         115.1452  154.2771  145.7494 H       1  UNL111      0.0329
     29 H         116.8784  155.9737  145.5330 H       1  UNL111      0.0344
     30 H         116.2795  155.9816  147.1856 H       1  UNL111      0.0344
     31 H         119.4085  151.7789  147.3894 H       1  UNL111      0.0760
     32 H         117.8326  152.4290  147.8763 H       1  UNL111      0.0760
     33 H         121.1120  152.9388  144.7397 H       1  UNL111      0.1146
     34 H         120.4232  155.0675  148.4476 H       1  UNL111      0.0922
     35 H         118.6191  149.6675  148.5058 H       1  UNL111      0.0661
     36 H         117.1044  148.9112  147.8855 H       1  UNL111      0.0661
     37 H         117.0206  150.4541  148.7848 H       1  UNL111      0.0661
     38 H         119.5455  149.7096  146.0810 H       1  UNL111      0.0661
     39 H         118.3958  150.2706  144.8070 H       1  UNL111      0.0661
     40 H         118.0294  148.8003  145.7386 H       1  UNL111      0.0661
     41 H         122.7139  154.5781  149.1219 H       1  UNL111      0.0912
     42 H         124.2084  153.2684  147.6976 H       1  UNL111      0.1103
     43 H         125.2807  151.5138  144.6648 H       1  UNL111      0.1069
     44 H         124.9805  151.4638  146.4062 H       1  UNL111      0.1069
     45 H         125.3653  153.0247  145.5809 H       1  UNL111      0.1069
@<TRIPOS>UNITY_ATOM_ATTR
3 1
charge 1
@<TRIPOS>BOND
     1     1     5    1
     2     2    16    1
     3     2    19    1
     4     3    10    1
     5     3    14    1
     6     3    15    1
     7     4     5    1
     8     4     6    1
     9     4    10    1
    10     5     7    1
    11     5    11    1
    12     6     8    1
    13     7     9    1
    14     8     9    1
    15    11    12   ar
    16    11    13   ar
    17    12    16   ar
    18    13    17   ar
    19    16    18   ar
    20    17    18   ar
    21     1    20    1
    22     3    21    1
    23     4    22    1
    24     6    23    1
    25     6    24    1
    26     7    25    1
    27     7    26    1
    28     8    27    1
    29     8    28    1
    30     9    29    1
    31     9    30    1
    32    10    31    1
    33    10    32    1
    34    12    33    1
    35    13    34    1
    36    14    35    1
    37    14    36    1
    38    14    37    1
    39    15    38    1
    40    15    39    1
    41    15    40    1
    42    17    41    1
    43    18    42    1
    44    19    43    1
    45    19    44    1
    46    19    45    1
@<TRIPOS>MOLECULE
10465484
 28 29 0 0 0
SMALL
GASTEIGER

@<TRIPOS>ATOM
      1 O         115.1989  153.5925  146.6281 O.2     1  UNL1111    -0.3749
      2 N         118.6191  154.2999  146.0274 N.2     1  UNL1111    -0.2645
      3 N         117.2596  154.3539  146.0345 N.am    1  UNL1111    -0.2291
      4 N         124.9105  153.1713  146.5796 N.pl3   1  UNL1111    -0.3753
      5 C         118.3995  151.9439  146.7340 C.3     1  UNL1111     0.0224
      6 C         117.1028  152.3624  147.4124 C.3     1  UNL1111     0.0566
      7 C         119.2023  153.1927  146.3889 C.2     1  UNL1111     0.0355
      8 C         118.1345  151.1262  145.4682 C.3     1  UNL1111    -0.0480
      9 C         120.7034  153.1457  146.4248 C.3     1  UNL1111    -0.0157
     10 C         116.4196  153.4598  146.6465 C.2     1  UNL1111     0.1737
     11 C         121.4192  151.9498  146.5353 C.3     1  UNL1111    -0.0580
     12 C         121.4164  154.3496  146.3546 C.3     1  UNL1111    -0.0580
     13 C         122.8201  151.9637  146.5707 C.3     1  UNL1111    -0.0575
     14 C         122.8153  154.3543  146.3924 C.3     1  UNL1111    -0.0575
     15 C         123.5309  153.1605  146.4737 C.3     1  UNL1111    -0.0345
     16 H         116.8342  155.1591  145.5859 H       1  UNL1111     0.2542
     17 H         125.4240  152.3035  146.5026 H       1  UNL1111     0.1586
     18 H         125.4161  154.0250  146.3815 H       1  UNL1111     0.1586
     19 H         118.9520  151.3243  147.4476 H       1  UNL1111     0.0686
     20 H         117.3105  152.7513  148.4168 H       1  UNL1111     0.0810
     21 H         116.4199  151.5119  147.5127 H       1  UNL1111     0.0810
     22 H         117.5793  151.7010  144.7191 H       1  UNL1111     0.0315
     23 H         117.5561  150.2264  145.7025 H       1  UNL1111     0.0315
     24 H         119.0709  150.8090  144.9983 H       1  UNL1111     0.0315
     25 H         120.9244  150.9862  146.5916 H       1  UNL1111     0.0951
     26 H         120.8924  155.3003  146.2808 H       1  UNL1111     0.0951
     27 H         123.3536  151.0218  146.6723 H       1  UNL1111     0.0990
     28 H         123.3389  155.3061  146.3555 H       1  UNL1111     0.0990
@<TRIPOS>BOND
     1     1    10    2
     2     2     3    1
     3     2     7    2
     4     3    10   am
     5     4    15    1
     6     5     6    1
     7     5     7    1
     8     5     8    1
     9     6    10    1
    10     7     9    1
    11     9    11   ar
    12     9    12   ar
    13    11    13   ar
    14    12    14   ar
    15    13    15   ar
    16    14    15   ar
    17     3    16    1
    18     4    17    1
    19     4    18    1
    20     5    19    1
    21     6    20    1
    22     6    21    1
    23     8    22    1
    24     8    23    1
    25     8    24    1
    26    11    25    1
    27    12    26    1
    28    13    27    1
    29    14    28    1
